!- Linux Line endings 

Version,
    24.1;                     !- Version Identifier

SimulationControl,
    Yes,                      !- Do Zone Sizing Calculation
    Yes,                      !- Do System Sizing Calculation
    Yes,                      !- Do Plant Sizing Calculation
    Yes,                      !- Run Simulation for Sizing Periods
    Yes,                      !- Run Simulation for Weather File Run Periods
    Yes,                      !- Do HVAC Sizing Simulation for Sizing Periods
    ;                         !- Maximum Number of HVAC Sizing Simulation Passes

Building,
    Building 1,               !- Name
    280,                      !- North Axis
    ,                         !- Terrain
    ,                         !- Loads Convergence Tolerance Value
    ,                         !- Temperature Convergence Tolerance Value
    ,                         !- Solar Distribution
    ,                         !- Maximum Number of Warmup Days
    ;                         !- Minimum Number of Warmup Days

ShadowCalculation,
    PolygonClipping,          !- Shading Calculation Method
    Periodic,                 !- Shading Calculation Update Frequency Method
    7,                        !- Shading Calculation Update Frequency
    15000,                    !- Maximum Figures in Shadow Overlap Calculations
    SutherlandHodgman,        !- Polygon Clipping Algorithm
    512,                      !- Pixel Counting Resolution
    SimpleSkyDiffuseModeling,    !- Sky Diffuse Modeling Algorithm
    No,                       !- Output External Shading Calculation Results
    No,                       !- Disable SelfShading Within Shading Zone Groups
    No;                       !- Disable SelfShading From Shading Zone Groups to Other Zones

SurfaceConvectionAlgorithm:Inside,
    TARP;                     !- Algorithm

SurfaceConvectionAlgorithm:Outside,
    DOE-2;                    !- Algorithm

HeatBalanceAlgorithm,
    ConductionTransferFunction,    !- Algorithm
    200;                      !- Surface Temperature Upper Limit

ZoneAirHeatBalanceAlgorithm,
    AnalyticalSolution,       !- Algorithm
    No,                       !- Do Space Heat Balance for Sizing
    No;                       !- Do Space Heat Balance for Simulation

ZoneAirContaminantBalance,
    No;                       !- Carbon Dioxide Concentration

ZoneCapacitanceMultiplier:ResearchSpecial,
    Zone Capacitance Multiplier Research Special,    !- Name
    ,                         !- Zone or ZoneList Name
    ,                         !- Temperature Capacity Multiplier
    ,                         !- Humidity Capacity Multiplier
    ,                         !- Carbon Dioxide Capacity Multiplier
    ;                         !- Generic Contaminant Capacity Multiplier

Timestep,
    6;                        !- Number of Timesteps per Hour

ConvergenceLimits,
    2,                        !- Minimum System Timestep
    25;                       !- Maximum HVAC Iterations

Site:Location,
    Mountain View Moffett Fld Nas,    !- Name
    37.4,                     !- Latitude
    -122.05,                  !- Longitude
    -8,                       !- Time Zone
    12;                       !- Elevation

SizingPeriod:DesignDay,
    Mountain View/Moffet N Ann Clg .4% Condns DB=>MWB,    !- Name
    7,                        !- Month
    21,                       !- Day of Month
    SummerDesignDay,          !- Day Type
    31.2,                     !- Maximum DryBulb Temperature
    9.5,                      !- Daily DryBulb Temperature Range
    DefaultMultipliers,       !- DryBulb Temperature Range Modifier Type
    ,                         !- DryBulb Temperature Range Modifier Day Schedule Name
    Wetbulb,                  !- Humidity Condition Type
    18.9,                     !- Wetbulb or DewPoint at Maximum DryBulb
    ,                         !- Humidity Condition Day Schedule Name
    ,                         !- Humidity Ratio at Maximum DryBulb
    ,                         !- Enthalpy at Maximum DryBulb
    ,                         !- Daily WetBulb Temperature Range
    101181,                   !- Barometric Pressure
    3.9,                      !- Wind Speed
    340,                      !- Wind Direction
    No,                       !- Rain Indicator
    No,                       !- Snow Indicator
    No,                       !- Daylight Saving Time Indicator
    ASHRAETau,                !- Solar Model Indicator
    ,                         !- Beam Solar Day Schedule Name
    ,                         !- Diffuse Solar Day Schedule Name
    0.378,                    !- ASHRAE Clear Sky Optical Depth for Beam Irradiance taub
    2.37,                     !- ASHRAE Clear Sky Optical Depth for Diffuse Irradiance taud
    ,                         !- Sky Clearness
    ,                         !- Maximum Number Warmup Days
    FullResetAtBeginEnvironment;    !- Begin Environment Reset Mode

SizingPeriod:DesignDay,
    Mountain View/Moffet N Ann Clg .4% Condns DP=>MDB,    !- Name
    7,                        !- Month
    21,                       !- Day of Month
    SummerDesignDay,          !- Day Type
    23.8,                     !- Maximum DryBulb Temperature
    9.5,                      !- Daily DryBulb Temperature Range
    DefaultMultipliers,       !- DryBulb Temperature Range Modifier Type
    ,                         !- DryBulb Temperature Range Modifier Day Schedule Name
    Dewpoint,                 !- Humidity Condition Type
    17.4,                     !- Wetbulb or DewPoint at Maximum DryBulb
    ,                         !- Humidity Condition Day Schedule Name
    ,                         !- Humidity Ratio at Maximum DryBulb
    ,                         !- Enthalpy at Maximum DryBulb
    ,                         !- Daily WetBulb Temperature Range
    101181,                   !- Barometric Pressure
    3.9,                      !- Wind Speed
    340,                      !- Wind Direction
    No,                       !- Rain Indicator
    No,                       !- Snow Indicator
    No,                       !- Daylight Saving Time Indicator
    ASHRAETau,                !- Solar Model Indicator
    ,                         !- Beam Solar Day Schedule Name
    ,                         !- Diffuse Solar Day Schedule Name
    0.378,                    !- ASHRAE Clear Sky Optical Depth for Beam Irradiance taub
    2.37,                     !- ASHRAE Clear Sky Optical Depth for Diffuse Irradiance taud
    ,                         !- Sky Clearness
    ,                         !- Maximum Number Warmup Days
    FullResetAtBeginEnvironment;    !- Begin Environment Reset Mode

SizingPeriod:DesignDay,
    Mountain View/Moffet N Ann Clg .4% Condns Enth=>MDB,    !- Name
    7,                        !- Month
    21,                       !- Day of Month
    SummerDesignDay,          !- Day Type
    28.1,                     !- Maximum DryBulb Temperature
    9.5,                      !- Daily DryBulb Temperature Range
    DefaultMultipliers,       !- DryBulb Temperature Range Modifier Type
    ,                         !- DryBulb Temperature Range Modifier Day Schedule Name
    Enthalpy,                 !- Humidity Condition Type
    ,                         !- Wetbulb or DewPoint at Maximum DryBulb
    ,                         !- Humidity Condition Day Schedule Name
    ,                         !- Humidity Ratio at Maximum DryBulb
    58100,                    !- Enthalpy at Maximum DryBulb
    ,                         !- Daily WetBulb Temperature Range
    101181,                   !- Barometric Pressure
    3.9,                      !- Wind Speed
    340,                      !- Wind Direction
    No,                       !- Rain Indicator
    No,                       !- Snow Indicator
    No,                       !- Daylight Saving Time Indicator
    ASHRAETau,                !- Solar Model Indicator
    ,                         !- Beam Solar Day Schedule Name
    ,                         !- Diffuse Solar Day Schedule Name
    0.378,                    !- ASHRAE Clear Sky Optical Depth for Beam Irradiance taub
    2.37,                     !- ASHRAE Clear Sky Optical Depth for Diffuse Irradiance taud
    ,                         !- Sky Clearness
    ,                         !- Maximum Number Warmup Days
    FullResetAtBeginEnvironment;    !- Begin Environment Reset Mode

SizingPeriod:DesignDay,
    Mountain View/Moffet N Ann Clg .4% Condns WB=>MDB,    !- Name
    7,                        !- Month
    21,                       !- Day of Month
    SummerDesignDay,          !- Day Type
    28.1,                     !- Maximum DryBulb Temperature
    9.5,                      !- Daily DryBulb Temperature Range
    DefaultMultipliers,       !- DryBulb Temperature Range Modifier Type
    ,                         !- DryBulb Temperature Range Modifier Day Schedule Name
    Wetbulb,                  !- Humidity Condition Type
    20.3,                     !- Wetbulb or DewPoint at Maximum DryBulb
    ,                         !- Humidity Condition Day Schedule Name
    ,                         !- Humidity Ratio at Maximum DryBulb
    ,                         !- Enthalpy at Maximum DryBulb
    ,                         !- Daily WetBulb Temperature Range
    101181,                   !- Barometric Pressure
    3.9,                      !- Wind Speed
    340,                      !- Wind Direction
    No,                       !- Rain Indicator
    No,                       !- Snow Indicator
    No,                       !- Daylight Saving Time Indicator
    ASHRAETau,                !- Solar Model Indicator
    ,                         !- Beam Solar Day Schedule Name
    ,                         !- Diffuse Solar Day Schedule Name
    0.378,                    !- ASHRAE Clear Sky Optical Depth for Beam Irradiance taub
    2.37,                     !- ASHRAE Clear Sky Optical Depth for Diffuse Irradiance taud
    ,                         !- Sky Clearness
    ,                         !- Maximum Number Warmup Days
    FullResetAtBeginEnvironment;    !- Begin Environment Reset Mode

SizingPeriod:DesignDay,
    Mountain View/Moffet N Ann Htg 99.6% Condns DB,    !- Name
    12,                       !- Month
    21,                       !- Day of Month
    WinterDesignDay,          !- Day Type
    2.5,                      !- Maximum DryBulb Temperature
    0,                        !- Daily DryBulb Temperature Range
    DefaultMultipliers,       !- DryBulb Temperature Range Modifier Type
    ,                         !- DryBulb Temperature Range Modifier Day Schedule Name
    Wetbulb,                  !- Humidity Condition Type
    2.5,                      !- Wetbulb or DewPoint at Maximum DryBulb
    ,                         !- Humidity Condition Day Schedule Name
    ,                         !- Humidity Ratio at Maximum DryBulb
    ,                         !- Enthalpy at Maximum DryBulb
    ,                         !- Daily WetBulb Temperature Range
    101181,                   !- Barometric Pressure
    0.5,                      !- Wind Speed
    270,                      !- Wind Direction
    No,                       !- Rain Indicator
    No,                       !- Snow Indicator
    No,                       !- Daylight Saving Time Indicator
    ASHRAEClearSky,           !- Solar Model Indicator
    ,                         !- Beam Solar Day Schedule Name
    ,                         !- Diffuse Solar Day Schedule Name
    ,                         !- ASHRAE Clear Sky Optical Depth for Beam Irradiance taub
    ,                         !- ASHRAE Clear Sky Optical Depth for Diffuse Irradiance taud
    0,                        !- Sky Clearness
    ,                         !- Maximum Number Warmup Days
    FullResetAtBeginEnvironment;    !- Begin Environment Reset Mode

SizingPeriod:DesignDay,
    Mountain View/Moffet N Ann Htg Wind 99.6% Condns WS=>MCDB,    !- Name
    12,                       !- Month
    21,                       !- Day of Month
    WinterDesignDay,          !- Day Type
    12,                       !- Maximum DryBulb Temperature
    0,                        !- Daily DryBulb Temperature Range
    DefaultMultipliers,       !- DryBulb Temperature Range Modifier Type
    ,                         !- DryBulb Temperature Range Modifier Day Schedule Name
    Wetbulb,                  !- Humidity Condition Type
    12,                       !- Wetbulb or DewPoint at Maximum DryBulb
    ,                         !- Humidity Condition Day Schedule Name
    ,                         !- Humidity Ratio at Maximum DryBulb
    ,                         !- Enthalpy at Maximum DryBulb
    ,                         !- Daily WetBulb Temperature Range
    101181,                   !- Barometric Pressure
    10.4,                     !- Wind Speed
    270,                      !- Wind Direction
    No,                       !- Rain Indicator
    No,                       !- Snow Indicator
    No,                       !- Daylight Saving Time Indicator
    ASHRAEClearSky,           !- Solar Model Indicator
    ,                         !- Beam Solar Day Schedule Name
    ,                         !- Diffuse Solar Day Schedule Name
    ,                         !- ASHRAE Clear Sky Optical Depth for Beam Irradiance taub
    ,                         !- ASHRAE Clear Sky Optical Depth for Diffuse Irradiance taud
    0,                        !- Sky Clearness
    ,                         !- Maximum Number Warmup Days
    FullResetAtBeginEnvironment;    !- Begin Environment Reset Mode

SizingPeriod:DesignDay,
    Mountain View/Moffet N Ann Hum_n 99.6% Condns DP=>MCDB,    !- Name
    12,                       !- Month
    21,                       !- Day of Month
    WinterDesignDay,          !- Day Type
    8.8,                      !- Maximum DryBulb Temperature
    0,                        !- Daily DryBulb Temperature Range
    DefaultMultipliers,       !- DryBulb Temperature Range Modifier Type
    ,                         !- DryBulb Temperature Range Modifier Day Schedule Name
    Dewpoint,                 !- Humidity Condition Type
    -6.6,                     !- Wetbulb or DewPoint at Maximum DryBulb
    ,                         !- Humidity Condition Day Schedule Name
    ,                         !- Humidity Ratio at Maximum DryBulb
    ,                         !- Enthalpy at Maximum DryBulb
    ,                         !- Daily WetBulb Temperature Range
    101181,                   !- Barometric Pressure
    0.5,                      !- Wind Speed
    270,                      !- Wind Direction
    No,                       !- Rain Indicator
    No,                       !- Snow Indicator
    No,                       !- Daylight Saving Time Indicator
    ASHRAEClearSky,           !- Solar Model Indicator
    ,                         !- Beam Solar Day Schedule Name
    ,                         !- Diffuse Solar Day Schedule Name
    ,                         !- ASHRAE Clear Sky Optical Depth for Beam Irradiance taub
    ,                         !- ASHRAE Clear Sky Optical Depth for Diffuse Irradiance taud
    0,                        !- Sky Clearness
    ,                         !- Maximum Number Warmup Days
    FullResetAtBeginEnvironment;    !- Begin Environment Reset Mode

RunPeriod,
    Run Period 1,             !- Name
    1,                        !- Begin Month
    1,                        !- Begin Day of Month
    2022,                     !- Begin Year
    12,                       !- End Month
    31,                       !- End Day of Month
    2022,                     !- End Year
    Monday,                   !- Day of Week for Start Day
    No,                       !- Use Weather File Holidays and Special Days
    No,                       !- Use Weather File Daylight Saving Period
    No,                       !- Apply Weekend Holiday Rule
    Yes,                      !- Use Weather File Rain Indicators
    Yes;                      !- Use Weather File Snow Indicators

ScheduleTypeLimits,
    Any Number,               !- Name
    0,                        !- Lower Limit Value
    100,                      !- Upper Limit Value
    Continuous,               !- Numeric Type
    Temperature;              !- Unit Type

ScheduleTypeLimits,
    Fraction,                 !- Name
    0,                        !- Lower Limit Value
    1,                        !- Upper Limit Value
    CONTINUOUS;               !- Numeric Type

ScheduleTypeLimits,
    ActivityLevel 13,         !- Name
    0,                        !- Lower Limit Value
    ,                         !- Upper Limit Value
    Continuous,               !- Numeric Type
    activitylevel;            !- Unit Type

ScheduleTypeLimits,
    Thermal Zone: Story 1 East Core Space Thermostat Schedule Type Limits,    !- Name
    0,                        !- Lower Limit Value
    4,                        !- Upper Limit Value
    DISCRETE;                 !- Numeric Type

ScheduleTypeLimits,
    Temperature 36,           !- Name
    ,                         !- Lower Limit Value
    ,                         !- Upper Limit Value
    Continuous,               !- Numeric Type
    temperature;              !- Unit Type

ScheduleTypeLimits,
    Temperature 37,           !- Name
    ,                         !- Lower Limit Value
    ,                         !- Upper Limit Value
    Continuous,               !- Numeric Type
    temperature;              !- Unit Type

ScheduleTypeLimits,
    Thermal Zone: Story 1 East Lower Perimeter Space Thermostat Schedule Type Limits,    !- Name
    0,                        !- Lower Limit Value
    4,                        !- Upper Limit Value
    DISCRETE;                 !- Numeric Type

ScheduleTypeLimits,
    Thermal Zone: Story 1 East Upper Perimeter Space Thermostat Schedule Type Limits,    !- Name
    0,                        !- Lower Limit Value
    4,                        !- Upper Limit Value
    DISCRETE;                 !- Numeric Type

ScheduleTypeLimits,
    Thermal Zone: Story 1 North Lower Perimeter Space Thermostat Schedule Type Limits,    !- Name
    0,                        !- Lower Limit Value
    4,                        !- Upper Limit Value
    DISCRETE;                 !- Numeric Type

ScheduleTypeLimits,
    Thermal Zone: Story 1 North Upper Perimeter Space Thermostat Schedule Type Limits,    !- Name
    0,                        !- Lower Limit Value
    4,                        !- Upper Limit Value
    DISCRETE;                 !- Numeric Type

ScheduleTypeLimits,
    Thermal Zone: Story 1 South Perimeter Space Thermostat Schedule Type Limits,    !- Name
    0,                        !- Lower Limit Value
    4,                        !- Upper Limit Value
    DISCRETE;                 !- Numeric Type

ScheduleTypeLimits,
    Thermal Zone: Story 1 West Core Space Thermostat Schedule Type Limits,    !- Name
    0,                        !- Lower Limit Value
    4,                        !- Upper Limit Value
    DISCRETE;                 !- Numeric Type

ScheduleTypeLimits,
    Thermal Zone: Story 1 West Perimeter Space Thermostat Schedule Type Limits,    !- Name
    0,                        !- Lower Limit Value
    4,                        !- Upper Limit Value
    DISCRETE;                 !- Numeric Type

ScheduleTypeLimits,
    Thermal Zone: Story 2 East Core Space Thermostat Schedule Type Limits,    !- Name
    0,                        !- Lower Limit Value
    4,                        !- Upper Limit Value
    DISCRETE;                 !- Numeric Type

ScheduleTypeLimits,
    Thermal Zone: Story 2 East Lower Perimeter Space Thermostat Schedule Type Limits,    !- Name
    0,                        !- Lower Limit Value
    4,                        !- Upper Limit Value
    DISCRETE;                 !- Numeric Type

ScheduleTypeLimits,
    Thermal Zone: Story 2 East Upper Perimeter Space Thermostat Schedule Type Limits,    !- Name
    0,                        !- Lower Limit Value
    4,                        !- Upper Limit Value
    DISCRETE;                 !- Numeric Type

ScheduleTypeLimits,
    Thermal Zone: Story 2 North Lower Perimeter Space Thermostat Schedule Type Limits,    !- Name
    0,                        !- Lower Limit Value
    4,                        !- Upper Limit Value
    DISCRETE;                 !- Numeric Type

ScheduleTypeLimits,
    Thermal Zone: Story 2 North Upper Perimeter Space Thermostat Schedule Type Limits,    !- Name
    0,                        !- Lower Limit Value
    4,                        !- Upper Limit Value
    DISCRETE;                 !- Numeric Type

ScheduleTypeLimits,
    Thermal Zone: Story 2 South Perimeter Space Thermostat Schedule Type Limits,    !- Name
    0,                        !- Lower Limit Value
    4,                        !- Upper Limit Value
    DISCRETE;                 !- Numeric Type

ScheduleTypeLimits,
    Thermal Zone: Story 2 West Core Space Thermostat Schedule Type Limits,    !- Name
    0,                        !- Lower Limit Value
    4,                        !- Upper Limit Value
    DISCRETE;                 !- Numeric Type

ScheduleTypeLimits,
    Thermal Zone: Story 2 West Perimeter Space Thermostat Schedule Type Limits,    !- Name
    0,                        !- Lower Limit Value
    4,                        !- Upper Limit Value
    DISCRETE;                 !- Numeric Type

ScheduleTypeLimits,
    Thermal Zone: Story 3 East Core Space Thermostat Schedule Type Limits,    !- Name
    0,                        !- Lower Limit Value
    4,                        !- Upper Limit Value
    DISCRETE;                 !- Numeric Type

ScheduleTypeLimits,
    Thermal Zone: Story 3 East Lower Perimeter Space Thermostat Schedule Type Limits,    !- Name
    0,                        !- Lower Limit Value
    4,                        !- Upper Limit Value
    DISCRETE;                 !- Numeric Type

ScheduleTypeLimits,
    Thermal Zone: Story 3 East Upper Perimeter Space Thermostat Schedule Type Limits,    !- Name
    0,                        !- Lower Limit Value
    4,                        !- Upper Limit Value
    DISCRETE;                 !- Numeric Type

ScheduleTypeLimits,
    Thermal Zone: Story 3 North Lower Perimeter Space Thermostat Schedule Type Limits,    !- Name
    0,                        !- Lower Limit Value
    4,                        !- Upper Limit Value
    DISCRETE;                 !- Numeric Type

ScheduleTypeLimits,
    Thermal Zone: Story 3 North Upper Perimeter Space Thermostat Schedule Type Limits,    !- Name
    0,                        !- Lower Limit Value
    4,                        !- Upper Limit Value
    DISCRETE;                 !- Numeric Type

ScheduleTypeLimits,
    Thermal Zone: Story 3 South Perimeter Space Thermostat Schedule Type Limits,    !- Name
    0,                        !- Lower Limit Value
    4,                        !- Upper Limit Value
    DISCRETE;                 !- Numeric Type

ScheduleTypeLimits,
    Thermal Zone: Story 3 West Core Space Thermostat Schedule Type Limits,    !- Name
    0,                        !- Lower Limit Value
    4,                        !- Upper Limit Value
    DISCRETE;                 !- Numeric Type

ScheduleTypeLimits,
    Thermal Zone: Story 3 West Perimeter Space Thermostat Schedule Type Limits,    !- Name
    0,                        !- Lower Limit Value
    4,                        !- Upper Limit Value
    DISCRETE;                 !- Numeric Type

ScheduleTypeLimits,
    Thermal Zone: Story 4 East Core Space Thermostat Schedule Type Limits,    !- Name
    0,                        !- Lower Limit Value
    4,                        !- Upper Limit Value
    DISCRETE;                 !- Numeric Type

ScheduleTypeLimits,
    Thermal Zone: Story 4 East Lower Perimeter Space Thermostat Schedule Type Limits,    !- Name
    0,                        !- Lower Limit Value
    4,                        !- Upper Limit Value
    DISCRETE;                 !- Numeric Type

ScheduleTypeLimits,
    Thermal Zone: Story 4 East Upper Perimeter Space Thermostat Schedule Type Limits,    !- Name
    0,                        !- Lower Limit Value
    4,                        !- Upper Limit Value
    DISCRETE;                 !- Numeric Type

ScheduleTypeLimits,
    Thermal Zone: Story 4 North Lower Perimeter Space Thermostat Schedule Type Limits,    !- Name
    0,                        !- Lower Limit Value
    4,                        !- Upper Limit Value
    DISCRETE;                 !- Numeric Type

ScheduleTypeLimits,
    Thermal Zone: Story 4 North Upper Perimeter Space Thermostat Schedule Type Limits,    !- Name
    0,                        !- Lower Limit Value
    4,                        !- Upper Limit Value
    DISCRETE;                 !- Numeric Type

ScheduleTypeLimits,
    Thermal Zone: Story 4 South Perimeter Space Thermostat Schedule Type Limits,    !- Name
    0,                        !- Lower Limit Value
    4,                        !- Upper Limit Value
    DISCRETE;                 !- Numeric Type

ScheduleTypeLimits,
    Thermal Zone: Story 4 West Core Space Thermostat Schedule Type Limits,    !- Name
    0,                        !- Lower Limit Value
    4,                        !- Upper Limit Value
    DISCRETE;                 !- Numeric Type

ScheduleTypeLimits,
    Thermal Zone: Story 4 West Perimeter Space Thermostat Schedule Type Limits,    !- Name
    0,                        !- Lower Limit Value
    4,                        !- Upper Limit Value
    DISCRETE;                 !- Numeric Type

ScheduleTypeLimits,
    Thermal Zone: Story 5 East Core Space Thermostat Schedule Type Limits,    !- Name
    0,                        !- Lower Limit Value
    4,                        !- Upper Limit Value
    DISCRETE;                 !- Numeric Type

ScheduleTypeLimits,
    Thermal Zone: Story 5 East Lower Perimeter Space Thermostat Schedule Type Limits,    !- Name
    0,                        !- Lower Limit Value
    4,                        !- Upper Limit Value
    DISCRETE;                 !- Numeric Type

ScheduleTypeLimits,
    Thermal Zone: Story 5 East Upper Perimeter Space Thermostat Schedule Type Limits,    !- Name
    0,                        !- Lower Limit Value
    4,                        !- Upper Limit Value
    DISCRETE;                 !- Numeric Type

ScheduleTypeLimits,
    Thermal Zone: Story 5 North Lower Perimeter Space Thermostat Schedule Type Limits,    !- Name
    0,                        !- Lower Limit Value
    4,                        !- Upper Limit Value
    DISCRETE;                 !- Numeric Type

ScheduleTypeLimits,
    Thermal Zone: Story 5 North Upper Perimeter Space Thermostat Schedule Type Limits,    !- Name
    0,                        !- Lower Limit Value
    4,                        !- Upper Limit Value
    DISCRETE;                 !- Numeric Type

ScheduleTypeLimits,
    Thermal Zone: Story 5 South Perimeter Space Thermostat Schedule Type Limits,    !- Name
    0,                        !- Lower Limit Value
    4,                        !- Upper Limit Value
    DISCRETE;                 !- Numeric Type

ScheduleTypeLimits,
    Thermal Zone: Story 5 West Core Space Thermostat Schedule Type Limits,    !- Name
    0,                        !- Lower Limit Value
    4,                        !- Upper Limit Value
    DISCRETE;                 !- Numeric Type

ScheduleTypeLimits,
    Thermal Zone: Story 5 West Perimeter Space Thermostat Schedule Type Limits,    !- Name
    0,                        !- Lower Limit Value
    4,                        !- Upper Limit Value
    DISCRETE;                 !- Numeric Type

ScheduleTypeLimits,
    Thermal Zone: Story 6 East Core Space Thermostat Schedule Type Limits,    !- Name
    0,                        !- Lower Limit Value
    4,                        !- Upper Limit Value
    DISCRETE;                 !- Numeric Type

ScheduleTypeLimits,
    Thermal Zone: Story 6 East Lower Perimeter Space Thermostat Schedule Type Limits,    !- Name
    0,                        !- Lower Limit Value
    4,                        !- Upper Limit Value
    DISCRETE;                 !- Numeric Type

ScheduleTypeLimits,
    Thermal Zone: Story 6 East Upper Perimeter Space Thermostat Schedule Type Limits,    !- Name
    0,                        !- Lower Limit Value
    4,                        !- Upper Limit Value
    DISCRETE;                 !- Numeric Type

ScheduleTypeLimits,
    Thermal Zone: Story 6 North Lower Perimeter Space Thermostat Schedule Type Limits,    !- Name
    0,                        !- Lower Limit Value
    4,                        !- Upper Limit Value
    DISCRETE;                 !- Numeric Type

ScheduleTypeLimits,
    Thermal Zone: Story 6 North Upper Perimeter Space Thermostat Schedule Type Limits,    !- Name
    0,                        !- Lower Limit Value
    4,                        !- Upper Limit Value
    DISCRETE;                 !- Numeric Type

ScheduleTypeLimits,
    Thermal Zone: Story 6 South Perimeter Space Thermostat Schedule Type Limits,    !- Name
    0,                        !- Lower Limit Value
    4,                        !- Upper Limit Value
    DISCRETE;                 !- Numeric Type

ScheduleTypeLimits,
    Thermal Zone: Story 6 West Core Space Thermostat Schedule Type Limits,    !- Name
    0,                        !- Lower Limit Value
    4,                        !- Upper Limit Value
    DISCRETE;                 !- Numeric Type

ScheduleTypeLimits,
    Thermal Zone: Story 6 West Perimeter Space Thermostat Schedule Type Limits,    !- Name
    0,                        !- Lower Limit Value
    4,                        !- Upper Limit Value
    DISCRETE;                 !- Numeric Type

ScheduleTypeLimits,