!-Generator IDFEditor 1.54
!-Option OriginalOrderTop UseSpecialFormat

!-NOTE: All comments with '!-' are ignored by the IDFEditor and are generated automatically.
!-      Use '!' comments if they need to be retained when using the IDFEditor.

Material,
    Std Wood 6inch,          !- Name
    MediumSmooth,            !- Roughness
    0.15,                    !- Thickness {m}
    0.12,                    !- Conductivity {W/m-K}
    540,                     !- Density {kg/m3}
    1210,                    !- Specific Heat {J/kg-K}
    0.9,                     !- Thermal Absorptance
    0.7,                     !- Solar Absorptance
    0.7;                     !- Visible Absorptance

Construction,
    Interior Furnishings,    !- Name
    Std Wood 6inch;          !- Outside Layer

ZoneList,
    AllZones,                !- Name
    Thermal Zone: Story 1 East Core Space,  !- Zone 1 Name
    Thermal Zone: Story 1 East Lower Perimeter Space;  !- Zone 2 Name

!-   ===========  Internal Mass Objects (ASHRAE 90.1 / PNNL Prototype Based) ===========

InternalMass,
    Thermal Zone: Story 1 East Core Space_InternalMass, !- Name
    Interior Furnishings,    !- Construction Name
    Thermal Zone: Story 1 East Core Space,  !- Zone or ZoneList Name
    ,                        !- Space or SpaceList Name
    1271.34;                 !- Surface Area {m2} (635.67 * 2)

InternalMass,
    Thermal Zone: Story 1 East Lower Perimeter Space_InternalMass, !- Name
    Interior Furnishings,    !- Construction Name
    Thermal Zone: Story 1 East Lower Perimeter Space, !- Zone or ZoneList Name
    ,                        !- Space or SpaceList Name
    163.88;                  !- Surface Area {m2} (81.94 * 2)

InternalMass,
    Thermal Zone: Story 1 East Upper Perimeter Space_InternalMass, !- Name
    Interior Furnishings,    !- Construction Name
    Thermal Zone: Story 1 East Upper Perimeter Space, !- Zone or ZoneList Name
    ,                        !- Space or SpaceList Name
    373.82;                  !- Surface Area {m2} (186.91 * 2)

InternalMass,
    Thermal Zone: Story 1 North Lower Perimeter Space_InternalMass, !- Name
    Interior Furnishings,    !- Construction Name
    Thermal Zone: Story 1 North Lower Perimeter Space, !- Zone or ZoneList Name
    ,                        !- Space or SpaceList Name
    373.82;                  !- Surface Area {m2} (186.91 * 2)

InternalMass,
    Thermal Zone: Story 1 North Upper Perimeter Space_InternalMass, !- Name
    Interior Furnishings,    !- Construction Name
    Thermal Zone: Story 1 North Upper Perimeter Space, !- Zone or ZoneList Name
    ,                        !- Space or SpaceList Name
    163.88;                  !- Surface Area {m2} (81.94 * 2)

InternalMass,
    Thermal Zone: Story 1 South Perimeter Space_InternalMass, !- Name
    Interior Furnishings,    !- Construction Name
    Thermal Zone: Story 1 South Perimeter Space, !- Zone or ZoneList Name
    ,                        !- Space or SpaceList Name
    537.70;                  !- Surface Area {m2} (268.85 * 2)

InternalMass,
    Thermal Zone: Story 1 West Core Space_InternalMass, !- Name
    Interior Furnishings,    !- Construction Name
    Thermal Zone: Story 1 West Core Space,  !- Zone or ZoneList Name
    ,                        !- Space or SpaceList Name
    1271.34;                 !- Surface Area {m2} (635.67 * 2)

InternalMass,
    Thermal Zone: Story 1 West Perimeter Space_InternalMass, !- Name
    Interior Furnishings,    !- Construction Name
    Thermal Zone: Story 1 West Perimeter Space, !- Zone or ZoneList Name
    ,                        !- Space or SpaceList Name
    537.70;                  !- Surface Area {m2} (268.85 * 2)

InternalMass,
    Thermal Zone: Story 2 East Core Space_InternalMass, !- Name
    Interior Furnishings,    !- Construction Name
    Thermal Zone: Story 2 East Core Space,  !- Zone or ZoneList Name
    ,                        !- Space or SpaceList Name
    1271.34;                 !- Surface Area {m2}

InternalMass,
    Thermal Zone: Story 2 East Lower Perimeter Space_InternalMass, !- Name
    Interior Furnishings,    !- Construction Name
    Thermal Zone: Story 2 East Lower Perimeter Space, !- Zone or ZoneList Name
    ,                        !- Space or SpaceList Name
    163.88;                  !- Surface Area {m2}

InternalMass,
    Thermal Zone: Story 2 East Upper Perimeter Space_InternalMass, !- Name
    Interior Furnishings,    !- Construction Name
    Thermal Zone: Story 2 East Upper Perimeter Space, !- Zone or ZoneList Name
    ,                        !- Space or SpaceList Name
    373.82;                  !- Surface Area {m2}

InternalMass,
    Thermal Zone: Story 2 North Lower Perimeter Space_InternalMass, !- Name
    Interior Furnishings,    !- Construction Name
    Thermal Zone: Story 2 North Lower Perimeter Space, !- Zone or ZoneList Name
    ,                        !- Space or SpaceList Name
    373.82;                  !- Surface Area {m2}

InternalMass,
    Thermal Zone: Story 2 North Upper Perimeter Space_InternalMass, !- Name
    Interior Furnishings,    !- Construction Name
    Thermal Zone: Story 2 North Upper Perimeter Space, !- Zone or ZoneList Name
    ,                        !- Space or SpaceList Name
    163.88;                  !- Surface Area {m2}

InternalMass,
    Thermal Zone: Story 2 South Perimeter Space_InternalMass, !- Name
    Interior Furnishings,    !- Construction Name
    Thermal Zone: Story 2 South Perimeter Space, !- Zone or ZoneList Name
    ,                        !- Space or SpaceList Name
    537.70;                  !- Surface Area {m2}

InternalMass,
    Thermal Zone: Story 2 West Core Space_InternalMass, !- Name
    Interior Furnishings,    !- Construction Name
    Thermal Zone: Story 2 West Core Space,  !- Zone or ZoneList Name
    ,                        !- Space or SpaceList Name
    1271.34;                 !- Surface Area {m2}

InternalMass,
    Thermal Zone: Story 2 West Perimeter Space_InternalMass, !- Name
    Interior Furnishings,    !- Construction Name
    Thermal Zone: Story 2 West Perimeter Space, !- Zone or ZoneList Name
    ,                        !- Space or SpaceList Name
    537.70;                  !- Surface Area {m2}

InternalMass,
    Thermal Zone: Story 3 East Core Space_InternalMass, !- Name
    Interior Furnishings,    !- Construction Name
    Thermal Zone: Story 3 East Core Space,  !- Zone or ZoneList Name
    ,                        !- Space or SpaceList Name
    1271.34;                 !- Surface Area {m2}

InternalMass,
    Thermal Zone: Story 3 East Lower Perimeter Space_InternalMass, !- Name
    Interior Furnishings,    !- Construction Name
    Thermal Zone: Story 3 East Lower Perimeter Space, !- Zone or ZoneList Name
    ,                        !- Space or SpaceList Name
    163.88;                  !- Surface Area {m2}

InternalMass,
    Thermal Zone: Story 3 East Upper Perimeter Space_InternalMass, !- Name
    Interior Furnishings,    !- Construction Name
    Thermal Zone: Story 3 East Upper Perimeter Space, !- Zone or ZoneList Name
    ,                        !- Space or SpaceList Name
    373.82;                  !- Surface Area {m2}

InternalMass,
    Thermal Zone: Story 3 North Lower Perimeter Space_InternalMass, !- Name
    Interior Furnishings,    !- Construction Name
    Thermal Zone: Story 3 North Lower Perimeter Space, !- Zone or ZoneList Name
    ,                        !- Space or SpaceList Name
    373.82;                  !- Surface Area {m2}

InternalMass,
    Thermal Zone: Story 3 North Upper Perimeter Space_InternalMass, !- Name
    Interior Furnishings,    !- Construction Name
    Thermal Zone: Story 3 North Upper Perimeter Space, !- Zone or ZoneList Name
    ,                        !- Space or SpaceList Name
    163.88;                  !- Surface Area {m2}

InternalMass,
    Thermal Zone: Story 3 South Perimeter Space_InternalMass, !- Name
    Interior Furnishings,    !- Construction Name
    Thermal Zone: Story 3 South Perimeter Space, !- Zone or ZoneList Name
    ,                        !- Space or SpaceList Name
    537.70;                  !- Surface Area {m2}

InternalMass,
    Thermal Zone: Story 3 West Core Space_InternalMass, !- Name
    Interior Furnishings,    !- Construction Name
    Thermal Zone: Story 3 West Core Space,  !- Zone or ZoneList Name
    ,                        !- Space or SpaceList Name
    1271.34;                 !- Surface Area {m2}

InternalMass,
    Thermal Zone: Story 3 West Perimeter Space_InternalMass, !- Name
    Interior Furnishings,    !- Construction Name
    Thermal Zone: Story 3 West Perimeter Space, !- Zone or ZoneList Name
    ,                        !- Space or SpaceList Name
    537.70;                  !- Surface Area {m2}

InternalMass,
    Thermal Zone: Story 4 East Core Space_InternalMass, !- Name
    Interior Furnishings,    !- Construction Name
    Thermal Zone: Story 4 East Core Space,  !- Zone or ZoneList Name
    ,                        !- Space or SpaceList Name
    1271.34;                 !- Surface Area {m2}

InternalMass,
    Thermal Zone: Story 4 East Lower Perimeter Space_InternalMass, !- Name
    Interior Furnishings,    !- Construction Name
    Thermal Zone: Story 4 East Lower Perimeter Space, !- Zone or ZoneList Name
    ,                        !- Space or SpaceList Name
    163.88;                  !- Surface Area {m2}

InternalMass,
    Thermal Zone: Story 4 East Upper Perimeter Space_InternalMass, !- Name
    Interior Furnishings,    !- Construction Name
    Thermal Zone: Story 4 East Upper Perimeter Space, !- Zone or ZoneList Name
    ,                        !- Space or SpaceList Name
    373.82;                  !- Surface Area {m2}

InternalMass,
    Thermal Zone: Story 4 North Lower Perimeter Space_InternalMass, !- Name
    Interior Furnishings,    !- Construction Name
    Thermal Zone: Story 4 North Lower Perimeter Space, !- Zone or ZoneList Name
    ,                        !- Space or SpaceList Name
    373.82;                  !- Surface Area {m2}

InternalMass,
    Thermal Zone: Story 4 North Upper Perimeter Space_InternalMass, !- Name
    Interior Furnishings,    !- Construction Name
    Thermal Zone: Story 4 North Upper Perimeter Space, !- Zone or ZoneList Name
    ,                        !- Space or SpaceList Name
    163.88;                  !- Surface Area {m2}

InternalMass,
    Thermal Zone: Story 4 South Perimeter Space_InternalMass, !- Name
    Interior Furnishings,    !- Construction Name
    Thermal Zone: Story 4 South Perimeter Space, !- Zone or ZoneList Name
    ,                        !- Space or SpaceList Name
    537.70;                  !- Surface Area {m2}

InternalMass,
    Thermal Zone: Story 4 West Core Space_InternalMass, !- Name
    Interior Furnishings,    !- Construction Name
    Thermal Zone: Story 4 West Core Space,  !- Zone or ZoneList Name
    ,                        !- Space or SpaceList Name
    1271.34;                 !- Surface Area {m2}

InternalMass,
    Thermal Zone: Story 4 West Perimeter Space_InternalMass, !- Name
    Interior Furnishings,    !- Construction Name
    Thermal Zone: Story 4 West Perimeter Space, !- Zone or ZoneList Name
    ,                        !- Space or SpaceList Name
    537.70;                  !- Surface Area {m2}

InternalMass,
    Thermal Zone: Story 5 East Core Space_InternalMass, !- Name
    Interior Furnishings,    !- Construction Name
    Thermal Zone: Story 5 East Core Space,  !- Zone or ZoneList Name
    ,                        !- Space or SpaceList Name
    1271.34;                 !- Surface Area {m2}

InternalMass,
    Thermal Zone: Story 5 East Lower Perimeter Space_InternalMass, !- Name
    Interior Furnishings,    !- Construction Name
    Thermal Zone: Story 5 East Lower Perimeter Space, !- Zone or ZoneList Name
    ,                        !- Space or SpaceList Name
    163.88;                  !- Surface Area {m2}

InternalMass,
    Thermal Zone: Story 5 East Upper Perimeter Space_InternalMass, !- Name
    Interior Furnishings,    !- Construction Name
    Thermal Zone: Story 5 East Upper Perimeter Space, !- Zone or ZoneList Name
    ,                        !- Space or SpaceList Name
    373.82;                  !- Surface Area {m2}

InternalMass,
    Thermal Zone: Story 5 North Lower Perimeter Space_InternalMass, !- Name
    Interior Furnishings,    !- Construction Name
    Thermal Zone: Story 5 North Lower Perimeter Space, !- Zone or ZoneList Name
    ,                        !- Space or SpaceList Name
    373.82;                  !- Surface Area {m2}

InternalMass,
    Thermal Zone: Story 5 North Upper Perimeter Space_InternalMass, !- Name
    Interior Furnishings,    !- Construction Name
    Thermal Zone: Story 5 North Upper Perimeter Space, !- Zone or ZoneList Name
    ,                        !- Space or SpaceList Name
    163.88;                  !- Surface Area {m2}

InternalMass,
    Thermal Zone: Story 5 South Perimeter Space_InternalMass, !- Name
    Interior Furnishings,    !- Construction Name
    Thermal Zone: Story 5 South Perimeter Space, !- Zone or ZoneList Name
    ,                        !- Space or SpaceList Name
    537.70;                  !- Surface Area {m2}

InternalMass,
    Thermal Zone: Story 5 West Core Space_InternalMass, !- Name
    Interior Furnishings,    !- Construction Name
    Thermal Zone: Story 5 West Core Space,  !- Zone or ZoneList Name
    ,                        !- Space or SpaceList Name
    1271.34;                 !- Surface Area {m2}

InternalMass,
    Thermal Zone: Story 5 West Perimeter Space_InternalMass, !- Name
    Interior Furnishings,    !- Construction Name
    Thermal Zone: Story 5 West Perimeter Space, !- Zone or ZoneList Name
    ,                        !- Space or SpaceList Name
    537.70;                  !- Surface Area {m2}

InternalMass,
    Thermal Zone: Story 6 East Core Space_InternalMass, !- Name
    Interior Furnishings,    !- Construction Name
    Thermal Zone: Story 6 East Core Space,  !- Zone or ZoneList Name
    ,                        !- Space or SpaceList Name
    1271.34;                 !- Surface Area {m2}

InternalMass,
    Thermal Zone: Story 6 East Lower Perimeter Space_InternalMass, !- Name
    Interior Furnishings,    !- Construction Name
    Thermal Zone: Story 6 East Lower Perimeter Space, !- Zone or ZoneList Name
    ,                        !- Space or SpaceList Name
    163.88;                  !- Surface Area {m2}

InternalMass,
    Thermal Zone: Story 6 East Upper Perimeter Space_InternalMass, !- Name
    Interior Furnishings,    !- Construction Name
    Thermal Zone: Story 6 East Upper Perimeter Space, !- Zone or ZoneList Name
    ,                        !- Space or SpaceList Name
    373.82;                  !- Surface Area {m2}

InternalMass,
    Thermal Zone: Story 6 North Lower Perimeter Space_InternalMass, !- Name
    Interior Furnishings,    !- Construction Name
    Thermal Zone: Story 6 North Lower Perimeter Space, !- Zone or ZoneList Name
    ,                        !- Space or SpaceList Name
    373.82;                  !- Surface Area {m2}

InternalMass,
    Thermal Zone: Story 6 North Upper Perimeter Space_InternalMass, !- Name
    Interior Furnishings,    !- Construction Name
    Thermal Zone: Story 6 North Upper Perimeter Space, !- Zone or ZoneList Name
    ,                        !- Space or SpaceList Name
    163.88;                  !- Surface Area {m2}

InternalMass,
    Thermal Zone: Story 6 South Perimeter Space_InternalMass, !- Name
    Interior Furnishings,    !- Construction Name
    Thermal Zone: Story 6 South Perimeter Space, !- Zone or ZoneList Name
    ,                        !- Space or SpaceList Name
    537.70;                  !- Surface Area {m2}

InternalMass,
    Thermal Zone: Story 6 West Core Space_InternalMass, !- Name
    Interior Furnishings,    !- Construction Name
    Thermal Zone: Story 6 West Core Space,  !- Zone or ZoneList Name
    ,                        !- Space or SpaceList Name
    1271.34;                 !- Surface Area {m2}

InternalMass,
    Thermal Zone: Story 6 West Perimeter Space_InternalMass, !- Name
    Interior Furnishings,    !- Construction Name
    Thermal Zone: Story 6 West Perimeter Space, !- Zone or ZoneList Name
    ,                        !- Space or SpaceList Name
    537.70;                  !- Surface Area {m2}

EnergyManagementSystem:Sensor,
    ZoneMeanAirTemp,         !- Name
    Thermal Zone: Story 2 South Perimeter Space,  !- Output:Variable or Output:Meter Index Key Name
    Zone Mean Air Temperature;  !- Output:Variable or Output:Meter Name

Output:Variable,*,Zone Thermostat Cooling Setpoint Temperature,Timestep;
Output:Variable,*,Zone Thermostat Heating Setpoint Temperature,Timestep;
Schedule:Constant,DualSetpointControl,Thermal Zone: Story 1 East Lower Perimeter Space Thermostat Schedule Type Limits,4;

Schedule:Compact,
    HVAC Schedule,           !- Name
    Always On Discrete Limits,  !- Schedule Type Limits Name
    Through: 12/31,          !- Field 1
    For: AllDays,            !- Field 2
    Until: 24:00, 1;         !- Field 4

Output:EnergyManagementSystem,
    Verbose,                 !- Actuator Availability Dictionary Reporting
    Verbose,                 !- Internal Variable Availability Dictionary Reporting
    Verbose;                 !- EMS Runtime Language Debug Output Level

Schedule:Compact,
    hsp,                     !- Name
    Any Number,              !- Schedule Type Limits Name
    Through: 12/31,          !- Field 1
    For: AllDays,            !- Field 2
    Until: 24:00, 18;        !- Field 4

Schedule:Compact,
    csp,                     !- Name
    Any Number,              !- Schedule Type Limits Name
    Through: 12/31,          !- Field 1
    For: AllDays,            !- Field 2
    Until: 01:00, 24,        !- Field 4
    Until: 02:00, 24,        !- Field 6
    Until: 03:00, 24,        !- Field 8
    Until: 04:00, 24,        !- Field 10
    Until: 05:00, 24,        !- Field 12
    Until: 06:00, 24,        !- Field 14
    Until: 07:00, 24,        !- Field 16
    Until: 08:00, 24,        !- Field 18
    Until: 09:00, 24,        !- Field 20
    Until: 10:00, 24,        !- Field 22
    Until: 11:00, 24,        !- Field 24
    Until: 12:00, 24,        !- Field 26
    Until: 13:00, 24,        !- Field 28
    Until: 14:00, 24,        !- Field 30
    Until: 15:00, 24,        !- Field 32
    Until: 16:00, 24,        !- Field 34
    Until: 17:00, 24,        !- Field 36
    Until: 18:00, 24,        !- Field 38
    Until: 19:00, 24,        !- Field 40
    Until: 20:00, 24,        !- Field 42
    Until: 21:00, 24,        !- Field 44
    Until: 22:00, 24,        !- Field 46
    Until: 23:00, 24,        !- Field 48
    Until: 24:00, 24;        !- Field 50

Version,24.1;

SimulationControl,
    Yes,                     !- Do Zone Sizing Calculation
    Yes,                     !- Do System Sizing Calculation
    Yes,                     !- Do Plant Sizing Calculation
    Yes,                     !- Run Simulation for Sizing Periods
    Yes,                     !- Run Simulation for Weather File Run Periods
    Yes,                     !- Do HVAC Sizing Simulation for Sizing Periods
    ;                        !- Maximum Number of HVAC Sizing Simulation Passes

Building,
    Building 1,              !- Name
    280,                     !- North Axis {deg}
    ,                        !- Terrain
    ,                        !- Loads Convergence Tolerance Value {W}
    ,                        !- Temperature Convergence Tolerance Value {deltaC}
    ,                        !- Solar Distribution
    ,                        !- Maximum Number of Warmup Days
    ;                        !- Minimum Number of Warmup Days

ShadowCalculation,
    PolygonClipping,         !- Shading Calculation Method
    Periodic,                !- Shading Calculation Update Frequency Method
    7,                       !- Shading Calculation Update Frequency
    15000,                   !- Maximum Figures in Shadow Overlap Calculations
    SutherlandHodgman,       !- Polygon Clipping Algorithm
    512,                     !- Pixel Counting Resolution
    SimpleSkyDiffuseModeling,!- Sky Diffuse Modeling Algorithm
    No,                      !- Output External Shading Calculation Results
    No,                      !- Disable Self-Shading Within Shading Zone Groups
    No;                      !- Disable Self-Shading From Shading Zone Groups to Other Zones

SurfaceConvectionAlgorithm:Inside,TARP;
SurfaceConvectionAlgorithm:Outside,DOE-2;
HeatBalanceAlgorithm,ConductionTransferFunction,200;
ZoneAirHeatBalanceAlgorithm,AnalyticalSolution,No,No;
ZoneAirContaminantBalance,No;
ZoneCapacitanceMultiplier:ResearchSpecial,Zone Capacitance Multiplier Research Special,,,,,;
Timestep,6;

ConvergenceLimits,
    2,                       !- Minimum System Timestep {minutes}
    25;                      !- Maximum HVAC Iterations

Site:Location,
    Mountain View Moffett Fld Nas,  !- Name
    37.4,                    !- Latitude {deg}
    -122.05,                 !- Longitude {deg}
    -8,                      !- Time Zone {hr}
    12;                      !- Elevation {m}

SizingPeriod:DesignDay,
    Mountain View/Moffet N Ann Clg .4% Condns DB=>MWB,  !- Name
    7,                       !- Month
    21,                      !- Day of Month
    SummerDesignDay,         !- Day Type
    31.2,                    !- Maximum Dry-Bulb Temperature {C}
    9.5,                     !- Daily Dry-Bulb Temperature Range {deltaC}
    DefaultMultipliers,      !- Dry-Bulb Temperature Range Modifier Type
    ,                        !- Dry-Bulb Temperature Range Modifier Day Schedule Name
    Wetbulb,                 !- Humidity Condition Type
    18.9,                    !- Wetbulb or DewPoint at Maximum Dry-Bulb {C}
    ,                        !- Humidity Condition Day Schedule Name
    ,                        !- Humidity Ratio at Maximum Dry-Bulb {kgWater/kgDryAir}
    ,                        !- Enthalpy at Maximum Dry-Bulb {J/kg}
    ,                        !- Daily Wet-Bulb Temperature Range {deltaC}
    101181,                  !- Barometric Pressure {Pa}
    3.9,                     !- Wind Speed {m/s}
    340,                     !- Wind Direction {deg}
    No,                      !- Rain Indicator
    No,                      !- Snow Indicator
    No,                      !- Daylight Saving Time Indicator
    ASHRAETau,               !- Solar Model Indicator
    ,                        !- Beam Solar Day Schedule Name
    ,                        !- Diffuse Solar Day Schedule Name
    0.378,                   !- ASHRAE Clear Sky Optical Depth for Beam Irradiance (taub) {dimensionless}
    2.37,                    !- ASHRAE Clear Sky Optical Depth for Diffuse Irradiance (taud) {dimensionless}
    ,                        !- Sky Clearness
    ,                        !- Maximum Number Warmup Days
    FullResetAtBeginEnvironment;  !- Begin Environment Reset Mode

SizingPeriod:DesignDay,
    Mountain View/Moffet N Ann Clg .4% Condns DP=>MDB,  !- Name
    7,                       !- Month
    21,                      !- Day of Month
    SummerDesignDay,         !- Day Type
    23.8,                    !- Maximum Dry-Bulb Temperature {C}
    9.5,                     !- Daily Dry-Bulb Temperature Range {deltaC}
    DefaultMultipliers,      !- Dry-Bulb Temperature Range Modifier Type
    ,                        !- Dry-Bulb Temperature Range Modifier Day Schedule Name
    Dewpoint,                !- Humidity Condition Type
    17.4,                    !- Wetbulb or DewPoint at Maximum Dry-Bulb {C}
    ,                        !- Humidity Condition Day Schedule Name
    ,                        !- Humidity Ratio at Maximum Dry-Bulb {kgWater/kgDryAir}
    ,                        !- Enthalpy at Maximum Dry-Bulb {J/kg}
    ,                        !- Daily Wet-Bulb Temperature Range {deltaC}
    101181,                  !- Barometric Pressure {Pa}
    3.9,                     !- Wind Speed {m/s}
    340,                     !- Wind Direction {deg}
    No,                      !- Rain Indicator
    No,                      !- Snow Indicator
    No,                      !- Daylight Saving Time Indicator
    ASHRAETau,               !- Solar Model Indicator
    ,                        !- Beam Solar Day Schedule Name
    ,                        !- Diffuse Solar Day Schedule Name
    0.378,                   !- ASHRAE Clear Sky Optical Depth for Beam Irradiance (taub) {dimensionless}
    2.37,                    !- ASHRAE Clear Sky Optical Depth for Diffuse Irradiance (taud) {dimensionless}
    ,                        !- Sky Clearness
    ,                        !- Maximum Number Warmup Days
    FullResetAtBeginEnvironment;  !- Begin Environment Reset Mode

SizingPeriod:DesignDay,
    Mountain View/Moffet N Ann Clg .4% Condns Enth=>MDB,  !- Name
    7,                       !- Month
    21,                      !- Day of Month
    SummerDesignDay,         !- Day Type
    28.1,                    !- Maximum Dry-Bulb Temperature {C}
    9.5,                     !- Daily Dry-Bulb Temperature Range {deltaC}
    DefaultMultipliers,      !- Dry-Bulb Temperature Range Modifier Type
    ,                        !- Dry-Bulb Temperature Range Modifier Day Schedule Name
    Enthalpy,                !- Humidity Condition Type
    ,                        !- Wetbulb or DewPoint at Maximum Dry-Bulb {C}
    ,                        !- Humidity Condition Day Schedule Name
    ,                        !- Humidity Ratio at Maximum Dry-Bulb {kgWater/kgDryAir}
    58100,                   !- Enthalpy at Maximum Dry-Bulb {J/kg}
    ,                        !- Daily Wet-Bulb Temperature Range {deltaC}
    101181,                  !- Barometric Pressure {Pa}
    3.9,                     !- Wind Speed {m/s}
    340,                     !- Wind Direction {deg}
    No,                      !- Rain Indicator
    No,                      !- Snow Indicator
    No,                      !- Daylight Saving Time Indicator
    ASHRAETau,               !- Solar Model Indicator
    ,                        !- Beam Solar Day Schedule Name
    ,                        !- Diffuse Solar Day Schedule Name
    0.378,                   !- ASHRAE Clear Sky Optical Depth for Beam Irradiance (taub) {dimensionless}
    2.37,                    !- ASHRAE Clear Sky Optical Depth for Diffuse Irradiance (taud) {dimensionless}
    ,                        !- Sky Clearness
    ,                        !- Maximum Number Warmup Days
    FullResetAtBeginEnvironment;  !- Begin Environment Reset Mode

SizingPeriod:DesignDay,
    Mountain View/Moffet N Ann Clg .4% Condns WB=>MDB,  !- Name
    7,                       !- Month
    21,                      !- Day of Month
    SummerDesignDay,         !- Day Type
    28.1,                    !- Maximum Dry-Bulb Temperature {C}
    9.5,                     !- Daily Dry-Bulb Temperature Range {deltaC}
    DefaultMultipliers,      !- Dry-Bulb Temperature Range Modifier Type
    ,                        !- Dry-Bulb Temperature Range Modifier Day Schedule Name
    Wetbulb,                 !- Humidity Condition Type
    20.3,                    !- Wetbulb or DewPoint at Maximum Dry-Bulb {C}
    ,                        !- Humidity Condition Day Schedule Name
    ,                        !- Humidity Ratio at Maximum Dry-Bulb {kgWater/kgDryAir}
    ,                        !- Enthalpy at Maximum Dry-Bulb {J/kg}
    ,                        !- Daily Wet-Bulb Temperature Range {deltaC}
    101181,                  !- Barometric Pressure {Pa}
    3.9,                     !- Wind Speed {m/s}
    340,                     !- Wind Direction {deg}
    No,                      !- Rain Indicator
    No,                      !- Snow Indicator
    No,                      !- Daylight Saving Time Indicator
    ASHRAETau,               !- Solar Model Indicator
    ,                        !- Beam Solar Day Schedule Name
    ,                        !- Diffuse Solar Day Schedule Name
    0.378,                   !- ASHRAE Clear Sky Optical Depth for Beam Irradiance (taub) {dimensionless}
    2.37,                    !- ASHRAE Clear Sky Optical Depth for Diffuse Irradiance (taud) {dimensionless}
    ,                        !- Sky Clearness
    ,                        !- Maximum Number Warmup Days
    FullResetAtBeginEnvironment;  !- Begin Environment Reset Mode

SizingPeriod:DesignDay,
    Mountain View/Moffet N Ann Htg 99.6% Condns DB,  !- Name
    12,                      !- Month
    21,                      !- Day of Month
    WinterDesignDay,         !- Day Type
    2.5,                     !- Maximum Dry-Bulb Temperature {C}
    0,                       !- Daily Dry-Bulb Temperature Range {deltaC}
    DefaultMultipliers,      !- Dry-Bulb Temperature Range Modifier Type
    ,                        !- Dry-Bulb Temperature Range Modifier Day Schedule Name
    Wetbulb,                 !- Humidity Condition Type
    2.5,                     !- Wetbulb or DewPoint at Maximum Dry-Bulb {C}
    ,                        !- Humidity Condition Day Schedule Name
    ,                        !- Humidity Ratio at Maximum Dry-Bulb {kgWater/kgDryAir}
    ,                        !- Enthalpy at Maximum Dry-Bulb {J/kg}
    ,                        !- Daily Wet-Bulb Temperature Range {deltaC}
    101181,                  !- Barometric Pressure {Pa}
    0.5,                     !- Wind Speed {m/s}
    270,                     !- Wind Direction {deg}
    No,                      !- Rain Indicator
    No,                      !- Snow Indicator
    No,                      !- Daylight Saving Time Indicator
    ASHRAEClearSky,          !- Solar Model Indicator
    ,                        !- Beam Solar Day Schedule Name
    ,                        !- Diffuse Solar Day Schedule Name