!- Linux Line endings 

Version,
    24.1;                     !- Version Identifier

SimulationControl,
    YES,                      !- Do Zone Sizing Calculation
    YES,                      !- Do System Sizing Calculation
    YES,                      !- Do Plant Sizing Calculation
    Yes,                      !- Run Simulation for Sizing Periods
    YES,                      !- Run Simulation for Weather File Run Periods
    Yes,                      !- Do HVAC Sizing Simulation for Sizing Periods
    1;                        !- Maximum Number of HVAC Sizing Simulation Passes

Building,
    Ref Bldg Small Office Post1980_v1.3_5.0,    !- Name
    0,                        !- North Axis
    City,                     !- Terrain
    0.04,                     !- Loads Convergence Tolerance Value
    0.2,                      !- Temperature Convergence Tolerance Value
    FullInteriorAndExterior,    !- Solar Distribution
    25,                       !- Maximum Number of Warmup Days
    6;                        !- Minimum Number of Warmup Days

ShadowCalculation,
    PolygonClipping,          !- Shading Calculation Method
    Periodic,                 !- Shading Calculation Update Frequency Method
    7,                        !- Shading Calculation Update Frequency
    15000;                    !- Maximum Figures in Shadow Overlap Calculations

SurfaceConvectionAlgorithm:Inside,
    TARP;                     !- Algorithm

SurfaceConvectionAlgorithm:Outside,
    DOE-2;                    !- Algorithm

HeatBalanceAlgorithm,
    ConductionTransferFunction,    !- Algorithm
    200;                      !- Surface Temperature Upper Limit

ZoneAirHeatBalanceAlgorithm,
    AnalyticalSolution,       !- Algorithm
    No;                       !- Do Space Heat Balance for Sizing

Timestep,
    6;                        !- Number of Timesteps per Hour

ConvergenceLimits,
    2,                        !- Minimum System Timestep
    25;                       !- Maximum HVAC Iterations

SizingPeriod:DesignDay,
    LA,                       !- Name
    9,                        !- Month
    21,                       !- Day of Month
    SummerDesignDay,          !- Day Type
    29.6,                     !- Maximum DryBulb Temperature
    8.1,                      !- Daily DryBulb Temperature Range
    ,                         !- DryBulb Temperature Range Modifier Type
    ,                         !- DryBulb Temperature Range Modifier Day Schedule Name
    Wetbulb,                  !- Humidity Condition Type
    19.9,                     !- Wetbulb or DewPoint at Maximum DryBulb
    ,                         !- Humidity Condition Day Schedule Name
    ,                         !- Humidity Ratio at Maximum DryBulb
    ,                         !- Enthalpy at Maximum DryBulb
    ,                         !- Daily WetBulb Temperature Range
    101325,                   !- Barometric Pressure
    5.5,                      !- Wind Speed
    260,                      !- Wind Direction
    No,                       !- Rain Indicator
    No,                       !- Snow Indicator
    No,                       !- Daylight Saving Time Indicator
    ASHRAETau,                !- Solar Model Indicator
    ,                         !- Beam Solar Day Schedule Name
    ,                         !- Diffuse Solar Day Schedule Name
    0.395,                    !- ASHRAE Clear Sky Optical Depth for Beam Irradiance taub
    2.268,                    !- ASHRAE Clear Sky Optical Depth for Diffuse Irradiance taud
    1;                        !- Sky Clearness

RunPeriod,
    RUNPERIOD 1,              !- Name
    7,                        !- Begin Month
    1,                        !- Begin Day of Month
    ,                         !- Begin Year
    9,                        !- End Month
    30,                       !- End Day of Month
    ,                         !- End Year
    Monday,                   !- Day of Week for Start Day
    No,                       !- Use Weather File Holidays and Special Days
    No,                       !- Use Weather File Daylight Saving Period
    No,                       !- Apply Weekend Holiday Rule
    Yes,                      !- Use Weather File Rain Indicators
    Yes;                      !- Use Weather File Snow Indicators

RunPeriodControl:SpecialDays,
    New Years Day,            !- Name
    January 1,                !- Start Date
    1,                        !- Duration
    Holiday;                  !- Special Day Type

RunPeriodControl:SpecialDays,
    Veterans Day,             !- Name
    November 11,              !- Start Date
    1,                        !- Duration
    Holiday;                  !- Special Day Type

RunPeriodControl:SpecialDays,
    Christmas,                !- Name
    December 25,              !- Start Date
    1,                        !- Duration
    Holiday;                  !- Special Day Type

RunPeriodControl:SpecialDays,
    Independence Day,         !- Name
    July 4,                   !- Start Date
    1,                        !- Duration
    Holiday;                  !- Special Day Type

RunPeriodControl:SpecialDays,
    MLK Day,                  !- Name
    3rd Monday in January,    !- Start Date
    1,                        !- Duration
    Holiday;                  !- Special Day Type

RunPeriodControl:SpecialDays,
    Presidents Day,           !- Name
    3rd Monday in February,    !- Start Date
    1,                        !- Duration
    Holiday;                  !- Special Day Type

RunPeriodControl:SpecialDays,
    Memorial Day,             !- Name
    Last Monday in May,       !- Start Date
    1,                        !- Duration
    Holiday;                  !- Special Day Type

RunPeriodControl:SpecialDays,
    Labor Day,                !- Name
    1st Monday in September,    !- Start Date
    1,                        !- Duration
    Holiday;                  !- Special Day Type

RunPeriodControl:SpecialDays,
    Columbus Day,             !- Name
    2nd Monday in October,    !- Start Date
    1,                        !- Duration
    Holiday;                  !- Special Day Type

RunPeriodControl:SpecialDays,
    Thanksgiving,             !- Name
    4th Thursday in November,    !- Start Date
    1,                        !- Duration
    Holiday;                  !- Special Day Type

RunPeriodControl:DaylightSavingTime,
    2nd Sunday in March,      !- Start Date
    1st Sunday in November;    !- End Date

Site:GroundTemperature:BuildingSurface,
    19.905,                   !- January Ground Temperature
    19.922,                   !- February Ground Temperature
    19.91,                    !- March Ground Temperature
    19.932,                   !- April Ground Temperature
    19.949,                   !- May Ground Temperature
    20.038,                   !- June Ground Temperature
    20.327,                   !- July Ground Temperature
    20.062,                   !- August Ground Temperature
    20.443,                   !- September Ground Temperature
    20.088,                   !- October Ground Temperature
    19.986,                   !- November Ground Temperature
    19.948;                   !- December Ground Temperature

Site:WaterMainsTemperature,
    CORRELATION,              !- Calculation Method
    ,                         !- Temperature Schedule Name
    13.08,                    !- Annual Average Outdoor Air Temperature
    8;                        !- Maximum Difference In Monthly Average Outdoor Air Temperatures

ScheduleTypeLimits,
    Any Number;               !- Name

ScheduleTypeLimits,
    Fraction,                 !- Name
    0,                        !- Lower Limit Value
    1,                        !- Upper Limit Value
    CONTINUOUS;               !- Numeric Type

ScheduleTypeLimits,
    Temperature,              !- Name
    -60,                      !- Lower Limit Value
    200,                      !- Upper Limit Value
    CONTINUOUS;               !- Numeric Type

ScheduleTypeLimits,
    On/Off,                   !- Name
    0,                        !- Lower Limit Value
    1,                        !- Upper Limit Value
    DISCRETE;                 !- Numeric Type

ScheduleTypeLimits,
    Control Type,             !- Name
    0,                        !- Lower Limit Value
    4,                        !- Upper Limit Value
    DISCRETE;                 !- Numeric Type

ScheduleTypeLimits,
    Humidity,                 !- Name
    10,                       !- Lower Limit Value
    90,                       !- Upper Limit Value
    CONTINUOUS;               !- Numeric Type

ScheduleTypeLimits,
    Number;                   !- Name

Schedule:Compact,
    ALWAYS_ON,                !- Name
    On/Off,                   !- Schedule Type Limits Name
    Through: 12/31,           !- Field 1
    For: AllDays,             !- Field 2
    Until: 24:00,             !- Field 3
    1;                        !- Field 4

Schedule:Compact,
    INFIL_QUARTER_ON_SCH,     !- Name
    Fraction,                 !- Schedule Type Limits Name
    Through: 12/31,           !- Field 1
    For: Weekdays SummerDesignDay,    !- Field 2
    Until: 06:00,             !- Field 3
    1.0,                      !- Field 4
    Until: 22:00,             !- Field 5
    0.25,                     !- Field 6
    Until: 24:00,             !- Field 7
    1.0,                      !- Field 8
    For: Saturday WinterDesignDay,    !- Field 9
    Until: 06:00,             !- Field 10
    1.0,                      !- Field 11
    Until: 18:00,             !- Field 12
    0.25,                     !- Field 13
    Until: 24:00,             !- Field 14
    1.0,                      !- Field 15
    For: Sunday Holidays AllOtherDays,    !- Field 16
    Until: 24:00,             !- Field 17
    1.0;                      !- Field 18

Schedule:Compact,
    BLDG_OCC_SCH,             !- Name
    Fraction,                 !- Schedule Type Limits Name
    Through: 12/31,           !- Field 1
    For: SummerDesignDay,     !- Field 2
    Until: 06:00,             !- Field 3
    0.0,                      !- Field 4
    Until: 22:00,             !- Field 5
    1.0,                      !- Field 6
    Until: 24:00,             !- Field 7
    0.05,                     !- Field 8
    For: Weekdays,            !- Field 9
    Until: 06:00,             !- Field 10
    0.0,                      !- Field 11
    Until: 07:00,             !- Field 12
    0.1,                      !- Field 13
    Until: 08:00,             !- Field 14
    0.2,                      !- Field 15
    Until: 12:00,             !- Field 16
    0.95,                     !- Field 17
    Until: 13:00,             !- Field 18
    0.5,                      !- Field 19
    Until: 17:00,             !- Field 20
    0.95,                     !- Field 21
    Until: 18:00,             !- Field 22
    0.3,                      !- Field 23
    Until: 20:00,             !- Field 24
    0.1,                      !- Field 25
    Until: 24:00,             !- Field 26
    0.05,                     !- Field 27
    For: Saturday,            !- Field 28
    Until: 06:00,             !- Field 29
    0.0,                      !- Field 30
    Until: 08:00,             !- Field 31
    0.1,                      !- Field 32
    Until: 12:00,             !- Field 33
    0.3,                      !- Field 34
    Until: 17:00,             !- Field 35
    0.1,                      !- Field 36
    Until: 24:00,             !- Field 37
    0.0,                      !- Field 38
    For: AllOtherDays,        !- Field 39
    Until: 24:00,             !- Field 40
    0.0;                      !- Field 41

Schedule:Compact,
    BLDG_LIGHT_SCH,           !- Name
    Fraction,                 !- Schedule Type Limits Name
    Through: 12/31,           !- Field 1
    For: Weekdays,            !- Field 2
    Until: 05:00,             !- Field 3
    0.05,                     !- Field 4
    Until: 07:00,             !- Field 5
    0.1,                      !- Field 6
    Until: 08:00,             !- Field 7
    0.3,                      !- Field 8
    Until: 17:00,             !- Field 9
    0.9,                      !- Field 10
    Until: 18:00,             !- Field 11
    0.5,                      !- Field 12
    Until: 20:00,             !- Field 13
    0.3,                      !- Field 14
    Until: 22:00,             !- Field 15
    0.2,                      !- Field 16
    Until: 23:00,             !- Field 17
    0.1,                      !- Field 18
    Until: 24:00,             !- Field 19
    0.05,                     !- Field 20
    For: Saturday,            !- Field 21
    Until: 06:00,             !- Field 22
    0.05,                     !- Field 23
    Until: 08:00,             !- Field 24
    0.1,                      !- Field 25
    Until: 12:00,             !- Field 26
    0.3,                      !- Field 27
    Until: 17:00,             !- Field 28
    0.15,                     !- Field 29
    Until: 24:00,             !- Field 30
    0.05,                     !- Field 31
    For: SummerDesignDay,     !- Field 32
    Until: 24:00,             !- Field 33
    1.0,                      !- Field 34
    For: WinterDesignDay,     !- Field 35
    Until: 24:00,             !- Field 36
    0.0,                      !- Field 37
    For: AllOtherDays,        !- Field 38
    Until: 24:00,             !- Field 39
    0.05;                     !- Field 40

Schedule:Compact,
    BLDG_EQUIP_SCH,           !- Name
    Fraction,                 !- Schedule Type Limits Name
    Through: 12/31,           !- Field 1
    For: Weekdays,            !- Field 2
    Until: 08:00,             !- Field 3
    0.40,                     !- Field 4
    Until: 12:00,             !- Field 5
    0.90,                     !- Field 6
    Until: 13:00,             !- Field 7
    0.80,                     !- Field 8
    Until: 17:00,             !- Field 9
    0.90,                     !- Field 10
    Until: 18:00,             !- Field 11
    0.50,                     !- Field 12
    Until: 24:00,             !- Field 13
    0.40,                     !- Field 14
    For: Saturday,            !- Field 15
    Until: 06:00,             !- Field 16
    0.30,                     !- Field 17
    Until: 08:00,             !- Field 18
    0.4,                      !- Field 19
    Until: 12:00,             !- Field 20
    0.5,                      !- Field 21
    Until: 17:00,             !- Field 22
    0.35,                     !- Field 23
    Until: 24:00,             !- Field 24
    0.30,                     !- Field 25
    For: SummerDesignDay,     !- Field 26
    Until: 24:00,             !- Field 27
    1.0,                      !- Field 28
    For: WinterDesignDay,     !- Field 29
    Until: 24:00,             !- Field 30
    0.0,                      !- Field 31
    For: AllOtherDays,        !- Field 32
    Until: 24:00,             !- Field 33
    0.30;                     !- Field 34

Schedule:Compact,
    ACTIVITY_SCH,             !- Name
    Any Number,               !- Schedule Type Limits Name
    Through: 12/31,           !- Field 1
    For: AllDays,             !- Field 2
    Until: 24:00,             !- Field 3
    120;                      !- Field 4

Schedule:Compact,
    WORK_EFF_SCH,             !- Name
    Fraction,                 !- Schedule Type Limits Name
    Through: 12/31,           !- Field 1
    For: AllDays,             !- Field 2
    Until: 24:00,             !- Field 3
    0.0;                      !- Field 4

Schedule:Compact,
    AIR_VELO_SCH,             !- Name
    Any Number,               !- Schedule Type Limits Name
    Through: 12/31,           !- Field 1
    For: AllDays,             !- Field 2
    Until: 24:00,             !- Field 3
    0.2;                      !- Field 4

Schedule:Compact,
    CLOTHING_SCH,             !- Name
    Any Number,               !- Schedule Type Limits Name
    Through: 04/30,           !- Field 1
    For: AllDays,             !- Field 2
    Until: 24:00,             !- Field 3
    1.0,                      !- Field 4
    Through: 09/30,           !- Field 5
    For: AllDays,             !- Field 6
    Until: 24:00,             !- Field 7
    0.5,                      !- Field 8
    Through: 12/31,           !- Field 9
    For: AllDays,             !- Field 10
    Until: 24:00,             !- Field 11
    1.0;                      !- Field 12

Schedule:Compact,
    HTGSETP_SCH,              !- Name
    Temperature,              !- Schedule Type Limits Name
    Through: 12/31,           !- Field 1
    For: Weekdays,            !- Field 2
    Until: 06:00,             !- Field 3
    11,                       !- Field 4
    Until: 22:00,             !- Field 5
    11,                       !- Field 6
    Until: 24:00,             !- Field 7
    11,                       !- Field 8
    For: Saturday,            !- Field 9
    Until: 06:00,             !- Field 10
    11,                       !- Field 11
    Until: 18:00,             !- Field 12
    11,                       !- Field 13
    Until: 24:00,             !- Field 14
    11,                       !- Field 15
    For: WinterDesignDay,     !- Field 16
    Until: 24:00,             !- Field 17
    11,                       !- Field 18
    For: AllOtherDays,        !- Field 19
    Until: 24:00,             !- Field 20
    11;                       !- Field 21

Schedule:Compact,
    MinOA_Sched,              !- Name
    Fraction,                 !- Schedule Type Limits Name
    Through: 12/31,           !- Field 1
    For: Weekdays SummerDesignDay,    !- Field 2
    Until: 07:00,             !- Field 3
    0.0,                      !- Field 4
    Until: 22:00,             !- Field 5
    1.0,                      !- Field 6
    Until: 24:00,             !- Field 7
    0.0,                      !- Field 8
    For: Saturday WinterDesignDay,    !- Field 9
    Until: 07:00,             !- Field 10
    0.0,                      !- Field 11
    Until: 18:00,             !- Field 12
    1.0,                      !- Field 13
    Until: 24:00,             !- Field 14
    0.0,                      !- Field 15
    For: AllOtherDays,        !- Field 16
    Until: 24:00,             !- Field 17
    0.0;                      !- Field 18

Schedule:Compact,
    Dual Zone Control Type Sched,    !- Name
    Control Type,             !- Schedule Type Limits Name
    Through: 12/31,           !- Field 1
    For: AllDays,             !- Field 2
    Until: 24:00,             !- Field 3
    4;                        !- Field 4

Schedule:Compact,
    HVACOperationSchd,        !- Name
    On/Off,                   !- Schedule Type Limits Name
    Through: 12/31,           !- Field 1
    For: Weekdays SummerDesignDay,    !- Field 2
    Until: 06:00,             !- Field 3
    0.0,                      !- Field 4
    Until: 22:00,             !- Field 5
    1.0,                      !- Field 6
    Until: 24:00,             !- Field 7
    0.0,                      !- Field 8
    For: Saturday WinterDesignDay,    !- Field 9
    Until: 06:00,             !- Field 10
    0.0,                      !- Field 11
    Until: 18:00,             !- Field 12
    1.0,                      !- Field 13
    Until: 24:00,             !- Field 14
    0.0,                      !- Field 15
    For: AllOtherDays,        !- Field 16
    Until: 24:00,             !- Field 17
    0.0;                      !- Field 18

Schedule:Compact,
    BLDG_SWH_SCH,             !- Name
    Fraction,                 !- Schedule Type Limits Name
    Through: 12/31,           !- Field 1
    For: Weekdays SummerDesignDay,    !- Field 2
    Until: 05:00,             !- Field 3
    0.05,                     !- Field 4
    Until: 06:00,             !- Field 5
    0.08,                     !- Field 6
    Until: 07:00,             !- Field 7
    0.07,                     !- Field 8
    Until: 08:00,             !- Field 9
    0.19,                     !- Field 10
    Until: 09:00,             !- Field 11
    0.35,                     !- Field 12
    Until: 10:00,             !- Field 13
    0.38,                     !- Field 14
    Until: 11:00,             !- Field 15
    0.39,                     !- Field 16
    Until: 12:00,             !- Field 17
    0.47,                     !- Field 18
    Until: 13:00,             !- Field 19
    0.57,                     !- Field 20
    Until: 14:00,             !- Field 21
    0.54,                     !- Field 22
    Until: 15:00,             !- Field 23
    0.34,                     !- Field 24
    Until: 16:00,             !- Field 25
    0.33,                     !- Field 26
    Until: 17:00,             !- Field 27
    0.44,                     !- Field 28
    Until: 18:00,             !- Field 29
    0.26,                     !- Field 30
    Until: 19:00,             !- Field 31
    0.21,                     !- Field 32
    Until: 20:00,             !- Field 33
    0.15,                     !- Field 34
    Until: 21:00,             !- Field 35
    0.17,                     !- Field 36
    Until: 22:00,             !- Field 37
    0.08,                     !- Field 38
    Until: 24:00,             !- Field 39
    0.05,                     !- Field 40
    For: Saturday WinterDesignDay,    !- Field 41
    Until: 05:00,             !- Field 42
    0.05,                     !- Field 43
    Until: 06:00,             !- Field 44
    0.08,                     !- Field 45
    Until: 07:00,             !- Field 46
    0.07,                     !- Field 47
    Until: 08:00,             !- Field 48
    0.11,                     !- Field 49
    Until: 09:00,             !- Field 50
    0.15,                     !- Field 51
    Until: 10:00,             !- Field 52
    0.21,                     !- Field 53
    Until: 11:00,             !- Field 54
    0.19,                     !- Field 55
    Until: 12:00,             !- Field 56
    0.23,                     !- Field 57
    Until: 13:00,             !- Field 58
    0.20,                     !- Field 59
    Until: 14:00,             !- Field 60
    0.19,                     !- Field 61
    Until: 15:00,             !- Field 62
    0.15,                     !- Field 63
    Until: 16:00,             !- Field 64
    0.13,                     !- Field 65
    Until: 17:00,             !- Field 66
    0.14,                     !- Field 67
    Until: 21:00,             !- Field 68
    0.07,                     !- Field 69
    Until: 22:00,             !- Field 70
    0.09,                     !- Field 71
    Until: 24:00,             !- Field 72
    0.05,                     !- Field 73
    For: AllOtherDays,        !- Field 74
    Until: 05:00,             !- Field 75
    0.04,                     !- Field 76
    Until: 06:00,             !- Field 77
    0.07,                     !- Field 78
    Until: 11:00,             !- Field 79
    0.04,                     !- Field 80
    Until: 13:00,             !- Field 81
    0.06,                     !- Field 82
    Until: 14:00,             !- Field 83
    0.09,                     !- Field 84
    Until: 15:00,             !- Field 85
    0.06,                     !- Field 86
    Until: 21:00,             !- Field 87
    0.04,                     !- Field 88
    Until: 22:00,             !- Field 89
    0.07,                     !- Field 90
    Until: 24:00,             !- Field 91
    0.04;                     !- Field 92

Schedule:Compact,
    Water Equipment Latent fract sched,    !- Name
    Fraction,                 !- Schedule Type Limits Name
    Through: 12/31,           !- Field 1
    For: AllDays,             !- Field 2
    Until: 24:00,             !- Field 3
    0.05;                     !- Field 4

Schedule:Compact,
    Water Equipment Sensible fract sched,    !- Name
    Fraction,                 !- Schedule Type Limits Name
    Through: 12/31,           !- Field 1
    For: AllDays,             !- Field 2
    Until: 24:00,             !- Field 3
    0.2;                      !- Field 4

Schedule:Compact,
    SWHSys1 Water Heater Ambient Temperature Schedule Name,    !- Name
    Temperature,              !- Schedule Type Limits Name
    Through: 12/31,           !- Field 1
    For: AllDays,             !- Field 2
    Until: 24:00,             !- Field 3
    22.0;                     !- Field 4

Schedule:Compact,
    Water Equipment Temp Sched,    !- Name
    Temperature,              !- Schedule Type Limits Name
    Through: 12/31,           !- Field 1
    For: AllDays,             !- Field 2
    Until: 24:00,             !- Field 3
    43.3;                     !- Field 4

Schedule:Compact,
    Water Equipment Hot Supply Temp Sched,    !- Name
    Temperature,              !- Schedule Type Limits Name
    Through: 12/31,           !- Field 1
    For: AllDays,             !- Field 2
    Until: 24:00,             !- Field 3
    43.3;                     !- Field 4

Schedule:Compact,
    SWHSys1 Water Heater Setpoint Temperature Schedule Name,    !- Name
    Temperature,              !- Schedule Type Limits Name
    Through: 12/31,           !- Field 1
    For: AllDays,             !- Field 2
    Until: 24:00,             !- Field 3
    60.0;                     !- Field 4

Schedule:Compact,
    SWHSys1-Loop-Temp-Schedule,    !- Name
    Temperature,              !- Schedule Type Limits Name
    Through: 12/31,           !- Field 1
    For: AllDays,             !- Field 2
    Until: 24:00,             !- Field 3
    60.0;                     !- Field 4

Schedule:Compact,
    PGESeasonsSchedule,       !- Name
    Number,                   !- Schedule Type Limits Name
    Through: 4/30,            !- Field 1
    For: AllDays,             !- Field 2
    Until: 24:00,             !- Field 3
    1,                        !- Field 4
    Through: 10/31,           !- Field 5
    For: AllDays,             !- Field 6
    Until: 24:00,             !- Field 7
    3,                        !- Field 8
    Through: 12/31,           !- Field 9
    For: AllDays,             !- Field 10
    Until: 24:00,             !- Field 11
    1;                        !- Field 12

Schedule:Compact,
    PGETOUSched,              !- Name
    Number,                   !- Schedule Type Limits Name
    Through: 4/30,            !- Field 1
    For: WeekDays,            !- Field 2
    Until: 8:30,              !- Field 3
    3,                        !- Field 4
    Until: 21:30,             !- Field 5
    4,                        !- Field 6
    Until: 24:00,             !- Field 7
    3,                        !- Field 8
    For: AllOtherDays,        !- Field 9
    Until: 24:00,             !- Field 10
    3,                        !- Field 11
    Through: 10/31,           !- Field 12
    For: WeekDays,            !- Field 13
    Until: 8:30,              !- Field 14
    3,                        !- Field 15
    Until: 12:00,             !- Field 16
    4,                        !- Field 17
    Until: 18:00,             !- Field 18
    1,                        !- Field 19
    Until: 21:30,             !- Field 20
    4,                        !- Field 21
    Until: 24:00,             !- Field 22
    3,                        !- Field 23
    For: AllOtherDays,        !- Field 24
    Until: 24:00,             !- Field 25
    3,                        !- Field 26
    Through: 12/31,           !- Field 27
    For: WeekDays,            !- Field 28
    Until: 10:00,             !- Field 29
    3,                        !- Field 30
    Until: 22:00,             !- Field 31
    1,                        !- Field 32
    Until: 24:00,             !- Field 33
    3,                        !- Field 34
    For: AllOtherDays,        !- Field 35
    Until: 24:00,             !- Field 36
    3;                        !- Field 37

Schedule:Compact,
    CLGSETP_SCH,              !- Name
    Any Number,               !- Schedule Type Limits Name
    Through: 12/31,           !- Field 1
    For: AllDays,             !- Field 2
    Until: 01:00,             !- Field 3
    24,                       !- Field 4
    Until: 02:00,             !- Field 5
    24,                       !- Field 6
    Until: 03:00,             !- Field 7
    24,                       !- Field 8
    Until: 04:00,             !- Field 9
    24,                       !- Field 10
    Until: 05:00,             !- Field 11
    24,                       !- Field 12
    Until: 06:00,             !- Field 13
    24,                       !- Field 14
    Until: 07:00,             !- Field 15
    24,                       !- Field 16
    Until: 08:00,             !- Field 17
    24,                       !- Field 18
    Until: 09:00,             !- Field 19
    24,                       !- Field 20
    Until: 10:00,             !- Field 21
    24,                       !- Field 22
    Until: 11:00,             !- Field 23
    24,                       !- Field 24
    Until: 12:00,             !- Field 25
    24,                       !- Field 26
    Until: 13:00,             !- Field 27
    24,                       !- Field 28
    Until: 14:00,             !- Field 29
    24,                       !- Field 30
    Until: 15:00,             !- Field 31
    24,                       !- Field 32
    Until: 16:00,             !- Field 33
    24,                       !- Field 34
    Until: 17:00,             !- Field 35
    24,                       !- Field 36
    Until: 18:00,             !- Field 37
    24,                       !- Field 38
    Until: 19:00,             !- Field 39
    24,                       !- Field 40
    Until: 20:00,             !- Field 41
    24,                       !- Field 42
    Until: 21:00,             !- Field 43
    24,                       !- Field 44
    Until: 22:00,             !- Field 45
    24,                       !- Field 46
    Until: 23:00,             !- Field 47
    24,                       !- Field 48