!-Generator IDFEditor 1.54
!-Option SortedOrder

!-NOTE: All comments with '!-' are ignored by the IDFEditor and are generated automatically.
!-      Use '!' comments if they need to be retained when using the IDFEditor.


!-   ===========  ALL OBJECTS IN CLASS: VERSION ===========

! DOE Commercial Reference Building
! Small Office, post-1980 construction
! Version 1.3_5.0
! EnergyPlus Version 5.0
! ASHRAE Standards 90.1-1989 and 62-1999
!
! Description:  Single story, five zone office building.
! Form:         Area = 511 m2 (5,500 ft2); Number of Stories = 1; Shape = rectangle, Aspect ratio = 1.5
! Envelope:     Envelope thermal properties vary with climate according to ASHRAE Standard 90.1-1989.
!               Opaque constructions: mass walls; attic roof; slab-on-grade floor
!               Windows: window-to-wall ratio = 21.2%, equal distribution of punched windows
!               Infiltration = 1.5 cfm/ft2 above grade wall area at 0.3 in wc (75 Pa) adjusted to 0.016 in wc (4 Pa).
!                              25% of full value when ventilation system on.
! HVAC:         PSZ-AC, gas furnace
!               No economizers, per ASHRAE 90.1-2004
!
! Int. gains:   lights = 19.48 W/m2 (1.8 W/ft2) (building area method);
!               elec. plug loads = 10.76 W/m2 (1.0 W/ft2)
!               gas plug load = 0 W/m2 (0 W/ft2)
!               people = 28 total; 5.38/100 m2 (5.0/1000 ft2)
!
! Detached Shading:               None
! Daylight:                       None
! Natural Ventilation:            None
! Zonal Equipment:                None
! Air Primary Loops:              PSZ
! Plant Loops:                    SHWSys1
! System Equipment Autosize:      Yes
! Purchased Cooling:              None
! Purchased Heating:              None
! Coils:                          Coil:Cooling:DX:SingleSpeed; Coil:Heating:Gas
! Pumps:                          None
! Boilers:                        None
! Chillers:                       None
!***** NOTICE *****
!***** The Reference Buildings were prepared as an account of work sponsored by an *****
!***** agency of the United States government. Neither the United States *****
!***** government nor any agency thereof, nor any of their employees, makes *****
!***** any warranty, express or implied, or assumes any legal liability or *****
!***** responsibility for the accuracy, completeness, or usefulness of any *****
!***** information, apparatus, product, or process disclosed, or represents *****
!***** that its use would not infringe privately owned rights. Reference *****
!***** herein to any specific commercial product, process, or service by *****
!***** trade name, trademark, manufacturer, or otherwise does not necessarily *****
!***** constitute or imply its endorsement, recommendation, or favoring by *****
!***** the United States government or any agency thereof. The views and *****
!***** opinions of authors expressed herein do not necessarily state or *****
!***** reflect those of the United States government or any agency thereof. *****
!***** Access to and use of the Reference Buildings imposes the following obligations *****
!***** on the user. The user agrees to credit DOE, NREL, PNNL, and LBNL in *****
!***** any publication(s) that that result from the use of Reference Buildings. *****
!***** However, the names of DOE/NREL/PNNL/LBNL may not be used in any *****
!***** advertising or publicity that implies endorsement or promotion of any *****
!***** products, services or commercial entities. *****
! Reference citation for the Commercial Reference Buildings:
! Deru, M.; Field, K.; Studer, D.; Benne, K.; Griffith, B.; Torcellini, P;
! Halverson, M.; Winiarski, D.; Liu, B.; Rosenberg, M.; Huang, J.;
! Yazdanian, M.; Crawley, D. (2010).
! U.S. Department of Energy Commercial Reference Building Models of the National Building Stock.
! Washington, DC: U.S. Department of Energy, Energy Efficiency and
! Renewable Energy, Office of Building Technologies.
! ***GENERAL SIMULATION PARAMETERS***
! Number of Zones: 6
Version,
    24.1;                    !- Version Identifier


!-   ===========  ALL OBJECTS IN CLASS: SIMULATIONCONTROL ===========

SimulationControl,
    YES,                     !- Do Zone Sizing Calculation
    YES,                     !- Do System Sizing Calculation
    YES,                     !- Do Plant Sizing Calculation
    Yes,                     !- Run Simulation for Sizing Periods
    YES,                     !- Run Simulation for Weather File Run Periods
    Yes,                     !- Do HVAC Sizing Simulation for Sizing Periods
    1;                       !- Maximum Number of HVAC Sizing Simulation Passes


!-   ===========  ALL OBJECTS IN CLASS: BUILDING ===========

Building,
    Ref Bldg Small Office Post1980_v1.3_5.0,  !- Name
    0.0000,                  !- North Axis {deg}
    City,                    !- Terrain
    0.0400,                  !- Loads Convergence Tolerance Value {W}
    0.2000,                  !- Temperature Convergence Tolerance Value {deltaC}
    FullInteriorAndExterior, !- Solar Distribution
    25,                      !- Maximum Number of Warmup Days
    6;                       !- Minimum Number of Warmup Days


!-   ===========  ALL OBJECTS IN CLASS: SHADOWCALCULATION ===========

ShadowCalculation,
    PolygonClipping,         !- Shading Calculation Method
    Periodic,                !- Shading Calculation Update Frequency Method
    7,                       !- Shading Calculation Update Frequency
    15000;                   !- Maximum Figures in Shadow Overlap Calculations


!-   ===========  ALL OBJECTS IN CLASS: SURFACECONVECTIONALGORITHM:INSIDE ===========

! ***MISC SIMULATION PARAMETERS***
SurfaceConvectionAlgorithm:Inside,
    TARP;                    !- Algorithm


!-   ===========  ALL OBJECTS IN CLASS: SURFACECONVECTIONALGORITHM:OUTSIDE ===========

SurfaceConvectionAlgorithm:Outside,
    DOE-2;                   !- Algorithm


!-   ===========  ALL OBJECTS IN CLASS: HEATBALANCEALGORITHM ===========

HeatBalanceAlgorithm,
    ConductionTransferFunction,  !- Algorithm
    200.0000;                !- Surface Temperature Upper Limit {C}


!-   ===========  ALL OBJECTS IN CLASS: ZONEAIRHEATBALANCEALGORITHM ===========

ZoneAirHeatBalanceAlgorithm,
    AnalyticalSolution,      !- Algorithm
    No;                      !- Do Space Heat Balance for Sizing


!-   ===========  ALL OBJECTS IN CLASS: TIMESTEP ===========

Timestep,
    6;                       !- Number of Timesteps per Hour


!-   ===========  ALL OBJECTS IN CLASS: CONVERGENCELIMITS ===========

ConvergenceLimits,
    2,                       !- Minimum System Timestep {minutes}
    25;                      !- Maximum HVAC Iterations


!-   ===========  ALL OBJECTS IN CLASS: SIZINGPERIOD:DESIGNDAY ===========

SizingPeriod:DesignDay,
    LA,                      !- Name
    9,                       !- Month
    21,                      !- Day of Month
    SummerDesignDay,         !- Day Type
    29.6,                    !- Maximum Dry-Bulb Temperature {C}
    8.1,                     !- Daily Dry-Bulb Temperature Range {deltaC}
    ,                        !- Dry-Bulb Temperature Range Modifier Type
    ,                        !- Dry-Bulb Temperature Range Modifier Day Schedule Name
    Wetbulb,                 !- Humidity Condition Type
    19.9,                    !- Wetbulb or DewPoint at Maximum Dry-Bulb {C}
    ,                        !- Humidity Condition Day Schedule Name
    ,                        !- Humidity Ratio at Maximum Dry-Bulb {kgWater/kgDryAir}
    ,                        !- Enthalpy at Maximum Dry-Bulb {J/kg}
    ,                        !- Daily Wet-Bulb Temperature Range {deltaC}
    101325,                  !- Barometric Pressure {Pa}
    5.5,                     !- Wind Speed {m/s}
    260,                     !- Wind Direction {deg}
    No,                      !- Rain Indicator
    No,                      !- Snow Indicator
    No,                      !- Daylight Saving Time Indicator
    ASHRAETau,               !- Solar Model Indicator
    ,                        !- Beam Solar Day Schedule Name
    ,                        !- Diffuse Solar Day Schedule Name
    0.395,                   !- ASHRAE Clear Sky Optical Depth for Beam Irradiance (taub) {dimensionless}
    2.268,                   !- ASHRAE Clear Sky Optical Depth for Diffuse Irradiance (taud) {dimensionless}
    1.00;                    !- Sky Clearness


!-   ===========  ALL OBJECTS IN CLASS: RUNPERIOD ===========

RunPeriod,
    RUNPERIOD 1,             !- Name
    7,                       !- Begin Month
    1,                       !- Begin Day of Month
    ,                        !- Begin Year
    9,                       !- End Month
    30,                      !- End Day of Month
    ,                        !- End Year
    Monday,                  !- Day of Week for Start Day
    No,                      !- Use Weather File Holidays and Special Days
    No,                      !- Use Weather File Daylight Saving Period
    No,                      !- Apply Weekend Holiday Rule
    Yes,                     !- Use Weather File Rain Indicators
    Yes;                     !- Use Weather File Snow Indicators


!-   ===========  ALL OBJECTS IN CLASS: RUNPERIODCONTROL:SPECIALDAYS ===========

RunPeriodControl:SpecialDays,
    New Years Day,           !- Name
    January 1,               !- Start Date
    1,                       !- Duration {days}
    Holiday;                 !- Special Day Type

RunPeriodControl:SpecialDays,
    Veterans Day,            !- Name
    November 11,             !- Start Date
    1,                       !- Duration {days}
    Holiday;                 !- Special Day Type

RunPeriodControl:SpecialDays,
    Christmas,               !- Name
    December 25,             !- Start Date
    1,                       !- Duration {days}
    Holiday;                 !- Special Day Type

RunPeriodControl:SpecialDays,
    Independence Day,        !- Name
    July 4,                  !- Start Date
    1,                       !- Duration {days}
    Holiday;                 !- Special Day Type

RunPeriodControl:SpecialDays,
    MLK Day,                 !- Name
    3rd Monday in January,   !- Start Date
    1,                       !- Duration {days}
    Holiday;                 !- Special Day Type

RunPeriodControl:SpecialDays,
    Presidents Day,          !- Name
    3rd Monday in February,  !- Start Date
    1,                       !- Duration {days}
    Holiday;                 !- Special Day Type

RunPeriodControl:SpecialDays,
    Memorial Day,            !- Name
    Last Monday in May,      !- Start Date
    1,                       !- Duration {days}
    Holiday;                 !- Special Day Type

RunPeriodControl:SpecialDays,
    Labor Day,               !- Name
    1st Monday in September, !- Start Date
    1,                       !- Duration {days}
    Holiday;                 !- Special Day Type

RunPeriodControl:SpecialDays,
    Columbus Day,            !- Name
    2nd Monday in October,   !- Start Date
    1,                       !- Duration {days}
    Holiday;                 !- Special Day Type

RunPeriodControl:SpecialDays,
    Thanksgiving,            !- Name
    4th Thursday in November,!- Start Date
    1,                       !- Duration {days}
    Holiday;                 !- Special Day Type


!-   ===========  ALL OBJECTS IN CLASS: RUNPERIODCONTROL:DAYLIGHTSAVINGTIME ===========

! ***HOLIDAYS & DAYLIGHT SAVINGS***
RunPeriodControl:DaylightSavingTime,
    2nd Sunday in March,     !- Start Date
    1st Sunday in November;  !- End Date


!-   ===========  ALL OBJECTS IN CLASS: SITE:GROUNDTEMPERATURE:BUILDINGSURFACE ===========

Site:GroundTemperature:BuildingSurface,
    19.905,                  !- January Ground Temperature {C}
    19.922,                  !- February Ground Temperature {C}
    19.910,                  !- March Ground Temperature {C}
    19.932,                  !- April Ground Temperature {C}
    19.949,                  !- May Ground Temperature {C}
    20.038,                  !- June Ground Temperature {C}
    20.327,                  !- July Ground Temperature {C}
    20.062,                  !- August Ground Temperature {C}
    20.443,                  !- September Ground Temperature {C}
    20.088,                  !- October Ground Temperature {C}
    19.986,                  !- November Ground Temperature {C}
    19.948;                  !- December Ground Temperature {C}


!-   ===========  ALL OBJECTS IN CLASS: SITE:WATERMAINSTEMPERATURE ===========

Site:WaterMainsTemperature,
    CORRELATION,             !- Calculation Method
    ,                        !- Temperature Schedule Name
    13.08,                   !- Annual Average Outdoor Air Temperature {C}
    8.00;                    !- Maximum Difference In Monthly Average Outdoor Air Temperatures {deltaC}


!-   ===========  ALL OBJECTS IN CLASS: SCHEDULETYPELIMITS ===========

! ***SCHEDULE TYPES***
ScheduleTypeLimits,
    Any Number;              !- Name

ScheduleTypeLimits,
    Fraction,                !- Name
    0.0,                     !- Lower Limit Value
    1.0,                     !- Upper Limit Value
    CONTINUOUS;              !- Numeric Type

ScheduleTypeLimits,
    Temperature,             !- Name
    -60,                     !- Lower Limit Value
    200,                     !- Upper Limit Value
    CONTINUOUS;              !- Numeric Type

ScheduleTypeLimits,
    On/Off,                  !- Name
    0,                       !- Lower Limit Value
    1,                       !- Upper Limit Value
    DISCRETE;                !- Numeric Type

ScheduleTypeLimits,
    Control Type,            !- Name
    0,                       !- Lower Limit Value
    4,                       !- Upper Limit Value
    DISCRETE;                !- Numeric Type

ScheduleTypeLimits,
    Humidity,                !- Name
    10,                      !- Lower Limit Value
    90,                      !- Upper Limit Value
    CONTINUOUS;              !- Numeric Type

ScheduleTypeLimits,
    Number;                  !- Name


!-   ===========  ALL OBJECTS IN CLASS: SCHEDULE:COMPACT ===========

! ***ALWAYS ON SCHEDULE***
Schedule:Compact,
    ALWAYS_ON,               !- Name
    On/Off,                  !- Schedule Type Limits Name
    Through: 12/31,          !- Field 1
    For: AllDays,            !- Field 2
    Until: 24:00,            !- Field 3
    1;                       !- Field 4

! ***INTERNAL GAINS SCHEDULES***
Schedule:Compact,
    INFIL_QUARTER_ON_SCH,    !- Name
    Fraction,                !- Schedule Type Limits Name
    Through: 12/31,          !- Field 1
    For: Weekdays SummerDesignDay,  !- Field 2
    Until: 06:00,            !- Field 3
    1.0,                     !- Field 4
    Until: 22:00,            !- Field 5
    0.25,                    !- Field 6
    Until: 24:00,            !- Field 7
    1.0,                     !- Field 8
    For: Saturday WinterDesignDay,  !- Field 9
    Until: 06:00,            !- Field 10
    1.0,                     !- Field 11
    Until: 18:00,            !- Field 12
    0.25,                    !- Field 13
    Until: 24:00,            !- Field 14
    1.0,                     !- Field 15
    For: Sunday Holidays AllOtherDays,  !- Field 16
    Until: 24:00,            !- Field 17
    1.0;                     !- Field 18

Schedule:Compact,
    BLDG_OCC_SCH,            !- Name
    Fraction,                !- Schedule Type Limits Name
    Through: 12/31,          !- Field 1
    For: SummerDesignDay,    !- Field 2
    Until: 06:00,            !- Field 3
    0.0,                     !- Field 4
    Until: 22:00,            !- Field 5
    1.0,                     !- Field 6
    Until: 24:00,            !- Field 7
    0.05,                    !- Field 8
    For: Weekdays,           !- Field 9
    Until: 06:00,            !- Field 10
    0.0,                     !- Field 11
    Until: 07:00,            !- Field 12
    0.1,                     !- Field 13
    Until: 08:00,            !- Field 14
    0.2,                     !- Field 15
    Until: 12:00,            !- Field 16
    0.95,                    !- Field 17
    Until: 13:00,            !- Field 18
    0.5,                     !- Field 19
    Until: 17:00,            !- Field 20
    0.95,                    !- Field 21
    Until: 18:00,            !- Field 22
    0.3,                     !- Field 23
    Until: 20:00,            !- Field 24
    0.1,                     !- Field 25
    Until: 24:00,            !- Field 26
    0.05,                    !- Field 27
    For: Saturday,           !- Field 28
    Until: 06:00,            !- Field 29
    0.0,                     !- Field 30
    Until: 08:00,            !- Field 31
    0.1,                     !- Field 32
    Until: 12:00,            !- Field 33
    0.3,                     !- Field 34
    Until: 17:00,            !- Field 35
    0.1,                     !- Field 36
    Until: 24:00,            !- Field 37
    0.0,                     !- Field 38
    For: AllOtherDays,       !- Field 39
    Until: 24:00,            !- Field 40
    0.0;                     !- Field 41

Schedule:Compact,
    BLDG_LIGHT_SCH,          !- Name
    Fraction,                !- Schedule Type Limits Name
    Through: 12/31,          !- Field 1
    For: Weekdays,           !- Field 2
    Until: 05:00,            !- Field 3
    0.05,                    !- Field 4
    Until: 07:00,            !- Field 5
    0.1,                     !- Field 6
    Until: 08:00,            !- Field 7
    0.3,                     !- Field 8
    Until: 17:00,            !- Field 9
    0.9,                     !- Field 10
    Until: 18:00,            !- Field 11
    0.5,                     !- Field 12
    Until: 20:00,            !- Field 13
    0.3,                     !- Field 14
    Until: 22:00,            !- Field 15
    0.2,                     !- Field 16
    Until: 23:00,            !- Field 17
    0.1,                     !- Field 18
    Until: 24:00,            !- Field 19
    0.05,                    !- Field 20
    For: Saturday,           !- Field 21
    Until: 06:00,            !- Field 22
    0.05,                    !- Field 23
    Until: 08:00,            !- Field 24
    0.1,                     !- Field 25
    Until: 12:00,            !- Field 26
    0.3,                     !- Field 27
    Until: 17:00,            !- Field 28
    0.15,                    !- Field 29
    Until: 24:00,            !- Field 30
    0.05,                    !- Field 31
    For: SummerDesignDay,    !- Field 32
    Until: 24:00,            !- Field 33
    1.0,                     !- Field 34
    For: WinterDesignDay,    !- Field 35
    Until: 24:00,            !- Field 36
    0.0,                     !- Field 37
    For: AllOtherDays,       !- Field 38
    Until: 24:00,            !- Field 39
    0.05;                    !- Field 40

Schedule:Compact,
    BLDG_EQUIP_SCH,          !- Name
    Fraction,                !- Schedule Type Limits Name
    Through: 12/31,          !- Field 1
    For: Weekdays,           !- Field 2
    Until: 08:00,            !- Field 3
    0.40,                    !- Field 4
    Until: 12:00,            !- Field 5
    0.90,                    !- Field 6
    Until: 13:00,            !- Field 7
    0.80,                    !- Field 8
    Until: 17:00,            !- Field 9
    0.90,                    !- Field 10
    Until: 18:00,            !- Field 11
    0.50,                    !- Field 12
    Until: 24:00,            !- Field 13
    0.40,                    !- Field 14
    For: Saturday,           !- Field 15
    Until: 06:00,            !- Field 16
    0.30,                    !- Field 17
    Until: 08:00,            !- Field 18
    0.4,                     !- Field 19
    Until: 12:00,            !- Field 20
    0.5,                     !- Field 21
    Until: 17:00,            !- Field 22
    0.35,                    !- Field 23
    Until: 24:00,            !- Field 24
    0.30,                    !- Field 25
    For: SummerDesignDay,    !- Field 26
    Until: 24:00,            !- Field 27
    1.0,                     !- Field 28
    For: WinterDesignDay,    !- Field 29
    Until: 24:00,            !- Field 30
    0.0,                     !- Field 31
    For: AllOtherDays,       !- Field 32
    Until: 24:00,            !- Field 33
    0.30;                    !- Field 34

Schedule:Compact,
    ACTIVITY_SCH,            !- Name
    Any Number,              !- Schedule Type Limits Name
    Through: 12/31,          !- Field 1
    For: AllDays,            !- Field 2
    Until: 24:00,            !- Field 3
    120;                     !- Field 4

Schedule:Compact,
    WORK_EFF_SCH,            !- Name
    Fraction,                !- Schedule Type Limits Name
    Through: 12/31,          !- Field 1
    For: AllDays,            !- Field 2
    Until: 24:00,            !- Field 3
    0.0;                     !- Field 4

Schedule:Compact,
    AIR_VELO_SCH,            !- Name
    Any Number,              !- Schedule Type Limits Name
    Through: 12/31,          !- Field 1
    For: AllDays,            !- Field 2
    Until: 24:00,            !- Field 3
    0.2;                     !- Field 4

Schedule:Compact,
    CLOTHING_SCH,            !- Name
    Any Number,              !- Schedule Type Limits Name
    Through: 04/30,          !- Field 1
    For: AllDays,            !- Field 2
    Until: 24:00,            !- Field 3
    1.0,                     !- Field 4
    Through: 09/30,          !- Field 5
    For: AllDays,            !- Field 6
    Until: 24:00,            !- Field 7
    0.5,                     !- Field 8
    Through: 12/31,          !- Field 9
    For: AllDays,            !- Field 10
    Until: 24:00,            !- Field 11
    1.0;                     !- Field 12

Schedule:Compact,
    HTGSETP_SCH,             !- Name
    Temperature,             !- Schedule Type Limits Name
    Through: 12/31,          !- Field 1
    For: Weekdays,           !- Field 2
    Until: 06:00,            !- Field 3
    11,                      !- Field 4
    Until: 22:00,            !- Field 5
    11,                      !- Field 6
    Until: 24:00,            !- Field 7
    11,                      !- Field 8
    For: Saturday,           !- Field 9
    Until: 06:00,            !- Field 10
    11,                      !- Field 11
    Until: 18:00,            !- Field 12
    11,                      !- Field 13
    Until: 24:00,            !- Field 14
    11,                      !- Field 15
    For: WinterDesignDay,    !- Field 16
    Until: 24:00,            !- Field 17
    11,                      !- Field 18
    For: AllOtherDays,       !- Field 19
    Until: 24:00,            !- Field 20
    11;                      !- Field 21

Schedule:Compact,
    MinOA_Sched,             !- Name
    Fraction,                !- Schedule Type Limits Name
    Through: 12/31,          !- Field 1
    For: Weekdays SummerDesignDay,  !- Field 2
    Until: 07:00,            !- Field 3
    0.0,                     !- Field 4
    Until: 22:00,            !- Field 5
    1.0,                     !- Field 6
    Until: 24:00,            !- Field 7
    0.0,                     !- Field 8
    For: Saturday WinterDesignDay,  !- Field 9
    Until: 07:00,            !- Field 10
    0.0,                     !- Field 11
    Until: 18:00,            !- Field 12
    1.0,                     !- Field 13
    Until: 24:00,            !- Field 14
    0.0,                     !- Field 15
    For: AllOtherDays,       !- Field 16
    Until: 24:00,            !- Field 17
    0.0;                     !- Field 18

Schedule:Compact,
    Dual Zone Control Type Sched,  !- Name
    Control Type,            !- Schedule Type Limits Name
    Through: 12/31,          !- Field 1
    For: AllDays,            !- Field 2
    Until: 24:00,            !- Field 3
    4;                       !- Field 4

Schedule:Compact,
    HVACOperationSchd,       !- Name
    On/Off,                  !- Schedule Type Limits Name
    Through: 12/31,          !- Field 1
    For: Weekdays SummerDesignDay,  !- Field 2
    Until: 06:00,            !- Field 3
    0.0,                     !- Field 4
    Until: 22:00,            !- Field 5
    1.0,                     !- Field 6
    Until: 24:00,            !- Field 7
    0.0,                     !- Field 8
    For: Saturday WinterDesignDay,  !- Field 9
    Until: 06:00,            !- Field 10
    0.0,                     !- Field 11
    Until: 18:00,            !- Field 12
    1.0,                     !- Field 13
    Until: 24:00,            !- Field 14
    0.0,                     !- Field 15
    For: AllOtherDays,       !- Field 16
    Until: 24:00,            !- Field 17
    0.0;                     !- Field 18

! ***SWH SCHEDULES***
Schedule:Compact,
    BLDG_SWH_SCH,            !- Name
    Fraction,                !- Schedule Type Limits Name
    Through: 12/31,          !- Field 1
    For: Weekdays SummerDesignDay,  !- Field 2
    Until: 05:00,            !- Field 3
    0.05,                    !- Field 4
    Until: 06:00,            !- Field 5
    0.08,                    !- Field 6
    Until: 07:00,            !- Field 7
    0.07,                    !- Field 8
    Until: 08:00,            !- Field 9
    0.19,                    !- Field 10
    Until: 09:00,            !- Field 11
    0.35,                    !- Field 12
    Until: 10:00,            !- Field 13
    0.38,                    !- Field 14
    Until: 11:00,            !- Field 15
    0.39,                    !- Field 16
    Until: 12:00,            !- Field 17
    0.47,                    !- Field 18
    Until: 13:00,            !- Field 19
    0.57,                    !- Field 20
    Until: 14:00,            !- Field 21
    0.54,                    !- Field 22
    Until: 15:00,            !- Field 23
    0.34,                    !- Field 24
    Until: 16:00,            !- Field 25
    0.33,                    !- Field 26
    Until: 17:00,            !- Field 27
    0.44,                    !- Field 28
    Until: 18:00,            !- Field 29
    0.26,                    !- Field 30
    Until: 19:00,            !- Field 31
    0.21,                    !- Field 32
    Until: 20:00,            !- Field 33
    0.15,                    !- Field 34
    Until: 21:00,            !- Field 35
    0.17,                    !- Field 36
    Until: 22:00,            !- Field 37
    0.08,                    !- Field 38
    Until: 24:00,            !- Field 39
    0.05,                    !- Field 40
    For: Saturday WinterDesignDay,  !- Field 41
    Until: 05:00,            !- Field 42
    0.05,                    !- Field 43
    Until: 06:00,            !- Field 44
    0.08,                    !- Field 45
    Until: 07:00,            !- Field 46
    0.07,                    !- Field 47
    Until: 08:00,            !- Field 48
    0.11,                    !- Field 49
    Until: 09:00,            !- Field 50
    0.15,                    !- Field 51
    Until: 10:00,            !- Field 52
    0.21,                    !- Field 53
    Until: 11:00,            !- Field 54
    0.19,                    !- Field 55
    Until: 12:00,            !- Field 56
    0.23,                    !- Field 57
    Until: 13:00,            !- Field 58
    0.20,                    !- Field 59
    Until: 14:00,            !- Field 60
    0.19,                    !- Field 61
    Until: 15:00,            !- Field 62
    0.15,                    !- Field 63
    Until: 16:00,            !- Field 64
    0.13,                    !- Field 65
    Until: 17:00,            !- Field 66
    0.14,                    !- Field 67
    Until: 21:00,            !- Field 68
    0.07,                    !- Field 69
    Until: 22:00,            !- Field 70
    0.09,                    !- Field 71
    Until: 24:00,            !- Field 72
    0.05,                    !- Field 73
    For: AllOtherDays,       !- Field 74
    Until: 05:00,            !- Field 75
    0.04,                    !- Field 76
    Until: 06:00,            !- Field 77
    0.07,                    !- Field 78
    Until: 11:00,            !- Field 79
    0.04,                    !- Field 80
    Until: 13:00,            !- Field 81
    0.06,                    !- Field 82
    Until: 14:00,            !- Field 83
    0.09,                    !- Field 84
    Until: 15:00,            !- Field 85
    0.06,                    !- Field 86
    Until: 21:00,            !- Field 87
    0.04,                    !- Field 88
    Until: 22:00,            !- Field 89
    0.07,                    !- Field 90
    Until: 24:00,            !- Field 91
    0.04;                    !- Field 92

Schedule:Compact,
    Water Equipment Latent fract sched,  !- Name
    Fraction,                !- Schedule Type Limits Name
    Through: 12/31,          !- Field 1
    For: AllDays,            !- Field 2
    Until: 24:00,            !- Field 3
    0.05;                    !- Field 4

Schedule:Compact,
    Water Equipment Sensible fract sched,  !- Name
    Fraction,                !- Schedule Type Limits Name
    Through: 12/31,          !- Field 1
    For: AllDays,            !- Field 2
    Until: 24:00,            !- Field 3
    0.2;                     !- Field 4

Schedule:Compact,
    SWHSys1 Water Heater Ambient Temperature Schedule Name,  !- Name
    Temperature,             !- Schedule Type Limits Name
    Through: 12/31,          !- Field 1
    For: AllDays,            !- Field 2
    Until: 24:00,            !- Field 3
    22.0;                    !- Field 4

Schedule:Compact,
    Water Equipment Temp Sched,  !- Name
    Temperature,             !- Schedule Type Limits Name
    Through: 12/31,          !- Field 1
    For: AllDays,            !- Field 2
    Until: 24:00,            !- Field 3
    43.3;                    !- Field 4

Schedule:Compact,
    Water Equipment Hot Supply Temp Sched,  !- Name